aldosterone
  MOE2013           3D
aldosterone
 54 57  0  0  1  0  0  0  0  0999 V2000
    2.6540    0.8520   -1.7920 C   0  0  0  0  0  0  0  0  0  0  0  0
    2.3970    1.8910   -2.0220 H   0  0  0  0  0  0  0  0  0  0  0  0
    1.9770    0.2080   -2.3620 H   0  0  0  0  0  0  0  0  0  0  0  0
    3.6580    0.6930   -2.2070 H   0  0  0  0  0  0  0  0  0  0  0  0
    2.6090    0.5650   -0.2840 C   0  0  2  0  0  0  0  0  0  0  0  0
    3.3090    1.7210    0.4670 C   0  0  0  0  0  0  0  0  0  0  0  0
    2.9060    2.6910    0.1500 H   0  0  0  0  0  0  0  0  0  0  0  0
    3.1010    1.6410    1.5440 H   0  0  0  0  0  0  0  0  0  0  0  0
    4.8130    1.7480    0.2860 C   0  0  0  0  0  0  0  0  0  0  0  0
    5.2380    2.5280    0.9270 H   0  0  0  0  0  0  0  0  0  0  0  0
    5.0950    1.9670   -0.7480 H   0  0  0  0  0  0  0  0  0  0  0  0
    5.4120    0.4300    0.6810 C   0  0  0  0  0  0  0  0  0  0  0  0
    6.5470    0.3360    1.1380 O   0  0  0  0  0  0  0  0  0  0  0  0
    4.6270   -0.7920    0.4230 C   0  0  0  0  0  0  0  0  0  0  0  0
    5.1520   -1.7280    0.5790 H   0  0  0  0  0  0  0  0  0  0  0  0
    3.3760   -0.7330   -0.0560 C   0  0  0  0  0  0  0  0  0  0  0  0
    2.6830   -2.0020   -0.4520 C   0  0  0  0  0  0  0  0  0  0  0  0
    2.6140   -2.0460   -1.5470 H   0  0  0  0  0  0  0  0  0  0  0  0
    3.2590   -2.8860   -0.1500 H   0  0  0  0  0  0  0  0  0  0  0  0
    1.2990   -2.0970    0.1470 C   0  0  0  0  0  0  0  0  0  0  0  0
    1.3770   -2.2100    1.2370 H   0  0  0  0  0  0  0  0  0  0  0  0
    0.8200   -3.0100   -0.2270 H   0  0  0  0  0  0  0  0  0  0  0  0
    0.4520   -0.8750   -0.1990 C   0  0  2  0  0  0  0  0  0  0  0  0
    0.3260   -0.8420   -1.2870 H   0  0  0  0  0  0  0  0  0  0  0  0
    1.1530    0.4210    0.2870 C   0  0  2  0  0  0  0  0  0  0  0  0
    1.2690    0.2940    1.3770 H   0  0  0  0  0  0  0  0  0  0  0  0
    0.2460    1.6730    0.1370 C   0  0  2  0  0  0  0  0  0  0  0  0
    0.6980    2.5130    0.6770 H   0  0  0  0  0  0  0  0  0  0  0  0
   -1.1750    1.4650    0.6880 C   0  0  0  0  0  0  0  0  0  0  0  0
   -1.1220    1.4030    1.7830 H   0  0  0  0  0  0  0  0  0  0  0  0
   -1.7910    2.3420    0.4510 H   0  0  0  0  0  0  0  0  0  0  0  0
   -1.8270    0.2010    0.1250 C   0  0  1  0  0  0  0  0  0  0  0  0
   -0.9160   -0.9760    0.4610 C   0  0  1  0  0  0  0  0  0  0  0  0
   -0.7380   -0.9690    1.5510 H   0  0  0  0  0  0  0  0  0  0  0  0
   -1.7660   -2.2070    0.2060 C   0  0  0  0  0  0  0  0  0  0  0  0
   -1.6980   -2.5460   -0.8340 H   0  0  0  0  0  0  0  0  0  0  0  0
   -1.4600   -3.0490    0.8370 H   0  0  0  0  0  0  0  0  0  0  0  0
   -3.1890   -1.7630    0.5380 C   0  0  0  0  0  0  0  0  0  0  0  0
   -3.5690   -2.2970    1.4170 H   0  0  0  0  0  0  0  0  0  0  0  0
   -3.8510   -2.0220   -0.2930 H   0  0  0  0  0  0  0  0  0  0  0  0
   -3.1150   -0.2550    0.8270 C   0  0  2  0  0  0  0  0  0  0  0  0
   -2.9870   -0.1530    1.9160 H   0  0  0  0  0  0  0  0  0  0  0  0
   -4.3580    0.5610    0.5030 C   0  0  0  0  0  0  0  0  0  0  0  0
   -4.5460    1.6480    1.0570 O   0  0  0  0  0  0  0  0  0  0  0  0
   -5.3810    0.0370   -0.4870 C   0  0  0  0  0  0  0  0  0  0  0  0
   -5.8910   -0.8240   -0.0490 H   0  0  0  0  0  0  0  0  0  0  0  0
   -4.8920   -0.2530   -1.4190 H   0  0  0  0  0  0  0  0  0  0  0  0
   -6.3610    1.0130   -0.8040 O   0  0  0  0  0  0  0  0  0  0  0  0
   -6.3750    1.6390   -0.0520 H   0  0  0  0  0  0  0  0  0  0  0  0
   -2.1110    0.4030   -1.3660 C   0  0  0  0  0  0  0  0  0  0  0  0
   -2.3030    1.4440   -1.6810 H   0  0  0  0  0  0  0  0  0  0  0  0
   -2.2440   -0.5040   -2.1820 O   0  0  0  0  0  0  0  0  0  0  0  0
    0.1320    2.0610   -1.2250 O   0  0  0  0  0  0  0  0  0  0  0  0
   -0.1090    3.0040   -1.2450 H   0  0  0  0  0  0  0  0  0  0  0  0
  1  2  1  0  0  0  0
  1  3  1  0  0  0  0
  1  4  1  0  0  0  0
  1  5  1  0  0  0  0
  5  6  1  0  0  0  0
  5 16  1  0  0  0  0
  5 25  1  0  0  0  0
  6  7  1  0  0  0  0
  6  8  1  0  0  0  0
  6  9  1  0  0  0  0
  9 10  1  0  0  0  0
  9 11  1  0  0  0  0
  9 12  1  0  0  0  0
 12 13  2  0  0  0  0
 12 14  1  0  0  0  0
 14 15  1  0  0  0  0
 14 16  2  0  0  0  0
 16 17  1  0  0  0  0
 17 18  1  0  0  0  0
 17 19  1  0  0  0  0
 17 20  1  0  0  0  0
 20 21  1  0  0  0  0
 20 22  1  0  0  0  0
 20 23  1  0  0  0  0
 23 24  1  0  0  0  0
 23 25  1  0  0  0  0
 23 33  1  0  0  0  0
 25 26  1  0  0  0  0
 25 27  1  0  0  0  0
 27 28  1  0  0  0  0
 27 29  1  0  0  0  0
 27 53  1  0  0  0  0
 29 30  1  0  0  0  0
 29 31  1  0  0  0  0
 29 32  1  0  0  0  0
 32 33  1  0  0  0  0
 32 41  1  0  0  0  0
 32 50  1  0  0  0  0
 33 34  1  0  0  0  0
 33 35  1  0  0  0  0
 35 36  1  0  0  0  0
 35 37  1  0  0  0  0
 35 38  1  0  0  0  0
 38 39  1  0  0  0  0
 38 40  1  0  0  0  0
 38 41  1  0  0  0  0
 41 42  1  0  0  0  0
 41 43  1  0  0  0  0
 43 44  2  0  0  0  0
 43 45  1  0  0  0  0
 45 46  1  0  0  0  0
 45 47  1  0  0  0  0
 45 48  1  0  0  0  0
 48 49  1  0  0  0  0
 50 51  1  0  0  0  0
 50 52  2  0  0  0  0
 53 54  1  0  0  0  0
M  END
>  <index>
1

>  <name>
aldosterone

>  <systematicName>
(11_)-11,21-Dihydroxy-3,20-dioxopregn-4-en-18-al

>  <ChemSpiderID>
5633

>  <isomericSMILES>
C[C@]12CCC(=O)C=C1CC[C@@H]3[C@@H]2[C@H](C[C@]4([C@H]3CC[C@@H]4C(=O)CO)C=O)O

>  <Activity>
6.2789998

>  <pKi_TeBG>
-5.322

>  <bindingClass>
2

$$$$
androstanediol
  MOE2013           3D
androstanediol
 53 56  0  0  1  0  0  0  0  0999 V2000
    2.6030    0.7060   -1.7150 C   0  0  0  0  0  0  0  0  0  0  0  0
    3.6310    0.7760   -2.0850 H   0  0  0  0  0  0  0  0  0  0  0  0
    2.0980    1.6260   -2.0300 H   0  0  0  0  0  0  0  0  0  0  0  0
    2.1250   -0.1160   -2.2530 H   0  0  0  0  0  0  0  0  0  0  0  0
    2.5610    0.5320   -0.1870 C   0  0  2  0  0  0  0  0  0  0  0  0
    3.2400    1.7780    0.4360 C   0  0  0  0  0  0  0  0  0  0  0  0
    3.3140    2.5860   -0.3040 H   0  0  0  0  0  0  0  0  0  0  0  0
    2.6290    2.1920    1.2470 H   0  0  0  0  0  0  0  0  0  0  0  0
    4.6130    1.5420    1.0350 C   0  0  0  0  0  0  0  0  0  0  0  0
    4.4980    1.1580    2.0580 H   0  0  0  0  0  0  0  0  0  0  0  0
    5.1310    2.5010    1.1610 H   0  0  0  0  0  0  0  0  0  0  0  0
    5.4810    0.5860    0.2470 C   0  0  2  0  0  0  0  0  0  0  0  0
    5.7890    1.0570   -0.6930 H   0  0  0  0  0  0  0  0  0  0  0  0
    4.7980   -0.7410   -0.0580 C   0  0  0  0  0  0  0  0  0  0  0  0
    4.9580   -0.9740   -1.1190 H   0  0  0  0  0  0  0  0  0  0  0  0
    5.2870   -1.5590    0.4890 H   0  0  0  0  0  0  0  0  0  0  0  0
    3.3090   -0.7490    0.2580 C   0  0  2  0  0  0  0  0  0  0  0  0
    3.2360   -0.8050    1.3560 H   0  0  0  0  0  0  0  0  0  0  0  0
    2.6640   -2.0240   -0.2770 C   0  0  0  0  0  0  0  0  0  0  0  0
    2.7160   -2.0680   -1.3700 H   0  0  0  0  0  0  0  0  0  0  0  0
    3.2150   -2.9000    0.0870 H   0  0  0  0  0  0  0  0  0  0  0  0
    1.2250   -2.1360    0.1820 C   0  0  0  0  0  0  0  0  0  0  0  0
    1.2110   -2.3040    1.2670 H   0  0  0  0  0  0  0  0  0  0  0  0
    0.7780   -3.0280   -0.2740 H   0  0  0  0  0  0  0  0  0  0  0  0
    0.3980   -0.9010   -0.1610 C   0  0  2  0  0  0  0  0  0  0  0  0
    0.2870   -0.8710   -1.2510 H   0  0  0  0  0  0  0  0  0  0  0  0
    1.0880    0.4020    0.3270 C   0  0  2  0  0  0  0  0  0  0  0  0
    1.1610    0.3200    1.4240 H   0  0  0  0  0  0  0  0  0  0  0  0
    0.1980    1.6350    0.0740 C   0  0  0  0  0  0  0  0  0  0  0  0
    0.6370    2.5300    0.5260 H   0  0  0  0  0  0  0  0  0  0  0  0
    0.1320    1.8470   -0.9980 H   0  0  0  0  0  0  0  0  0  0  0  0
   -1.2110    1.4710    0.6550 C   0  0  0  0  0  0  0  0  0  0  0  0
   -1.8140    2.3540    0.4100 H   0  0  0  0  0  0  0  0  0  0  0  0
   -1.1290    1.4530    1.7490 H   0  0  0  0  0  0  0  0  0  0  0  0
   -1.8860    0.2030    0.1410 C   0  0  1  0  0  0  0  0  0  0  0  0
   -0.9830   -0.9860    0.4820 C   0  0  1  0  0  0  0  0  0  0  0  0
   -0.8110   -0.9940    1.5710 H   0  0  0  0  0  0  0  0  0  0  0  0
   -1.8570   -2.1930    0.1930 C   0  0  0  0  0  0  0  0  0  0  0  0
   -1.8000   -2.4930   -0.8600 H   0  0  0  0  0  0  0  0  0  0  0  0
   -1.5660   -3.0600    0.7940 H   0  0  0  0  0  0  0  0  0  0  0  0
   -3.2780   -1.7310    0.5430 C   0  0  0  0  0  0  0  0  0  0  0  0
   -3.6740   -2.3050    1.3870 H   0  0  0  0  0  0  0  0  0  0  0  0
   -3.9370   -1.9040   -0.3150 H   0  0  0  0  0  0  0  0  0  0  0  0
   -3.1780   -0.2300    0.8600 C   0  0  1  0  0  0  0  0  0  0  0  0
   -4.0630    0.3300    0.5380 H   0  0  0  0  0  0  0  0  0  0  0  0
   -3.0450   -0.0860    2.2700 O   0  0  0  0  0  0  0  0  0  0  0  0
   -3.8740   -0.3950    2.6750 H   0  0  0  0  0  0  0  0  0  0  0  0
   -2.1880    0.3580   -1.3620 C   0  0  0  0  0  0  0  0  0  0  0  0
   -1.2920    0.5240   -1.9660 H   0  0  0  0  0  0  0  0  0  0  0  0
   -2.8510    1.2150   -1.5290 H   0  0  0  0  0  0  0  0  0  0  0  0
   -2.6900   -0.5140   -1.7920 H   0  0  0  0  0  0  0  0  0  0  0  0
    6.6620    0.3280    1.0000 O   0  0  0  0  0  0  0  0  0  0  0  0
    7.1080    1.1790    1.1500 H   0  0  0  0  0  0  0  0  0  0  0  0
  1  2  1  0  0  0  0
  1  3  1  0  0  0  0
  1  4  1  0  0  0  0
  1  5  1  0  0  0  0
  5  6  1  0  0  0  0
  5 17  1  0  0  0  0
  5 27  1  0  0  0  0
  6  7  1  0  0  0  0
  6  8  1  0  0  0  0
  6  9  1  0  0  0  0
  9 10  1  0  0  0  0
  9 11  1  0  0  0  0
  9 12  1  0  0  0  0
 12 13  1  0  0  0  0
 12 14  1  0  0  0  0
 12 52  1  0  0  0  0
 14 15  1  0  0  0  0
 14 16  1  0  0  0  0
 14 17  1  0  0  0  0
 17 18  1  0  0  0  0
 17 19  1  0  0  0  0
 19 20  1  0  0  0  0
 19 21  1  0  0  0  0
 19 22  1  0  0  0  0
 22 23  1  0  0  0  0
 22 24  1  0  0  0  0
 22 25  1  0  0  0  0
 25 26  1  0  0  0  0
 25 27  1  0  0  0  0
 25 36  1  0  0  0  0
 27 28  1  0  0  0  0
 27 29  1  0  0  0  0
 29 30  1  0  0  0  0
 29 31  1  0  0  0  0
 29 32  1  0  0  0  0
 32 33  1  0  0  0  0
 32 34  1  0  0  0  0
 32 35  1  0  0  0  0
 35 36  1  0  0  0  0
 35 44  1  0  0  0  0
 35 48  1  0  0  0  0
 36 37  1  0  0  0  0
 36 38  1  0  0  0  0
 38 39  1  0  0  0  0
 38 40  1  0  0  0  0
 38 41  1  0  0  0  0
 41 42  1  0  0  0  0
 41 43  1  0  0  0  0
 41 44  1  0  0  0  0
 44 45  1  0  0  0  0
 44 46  1  0  0  0  0
 46 47  1  0  0  0  0
 48 49  1  0  0  0  0
 48 50  1  0  0  0  0
 48 51  1  0  0  0  0
 52 53  1  0  0  0  0
M  END
>  <index>
2

>  <name>
androstanediol

>  <systematicName>
(3_,5_)-Androstane-3,17-diol

>  <ChemSpiderID>
390064

>  <isomericSMILES>
C[C@]12CC[C@H](C[C@@H]1CC[C@@H]3[C@@H]2CC[C@]4([C@H]3CCC4O)C)O

>  <Activity>
5

>  <pKi_TeBG>
-9.1140003

>  <bindingClass>
3

$$$$
androstenediol
  MOE2013           3D
androstenediol
 51 54  0  0  1  0  0  0  0  0999 V2000
   -2.3140    0.4680   -0.8610 C   0  0  0  0  0  0  0  0  0  0  0  0
   -1.5680    0.7300   -1.6170 H   0  0  0  0  0  0  0  0  0  0  0  0
   -2.9790    1.3320   -0.7440 H   0  0  0  0  0  0  0  0  0  0  0  0
   -2.9210   -0.3290   -1.3000 H   0  0  0  0  0  0  0  0  0  0  0  0
   -1.6700    0.0970    0.4850 C   0  0  2  0  0  0  0  0  0  0  0  0
   -0.9290    1.3170    1.0080 C   0  0  0  0  0  0  0  0  0  0  0  0
   -1.5570    2.2150    0.9570 H   0  0  0  0  0  0  0  0  0  0  0  0
   -0.6830    1.1840    2.0700 H   0  0  0  0  0  0  0  0  0  0  0  0
    0.3660    1.5470    0.2360 C   0  0  0  0  0  0  0  0  0  0  0  0
    0.8670    2.4030    0.6970 H   0  0  0  0  0  0  0  0  0  0  0  0
    0.1520    1.8360   -0.7980 H   0  0  0  0  0  0  0  0  0  0  0  0
    1.2590    0.2960    0.2790 C   0  0  1  0  0  0  0  0  0  0  0  0
    1.4010    0.0780    1.3520 H   0  0  0  0  0  0  0  0  0  0  0  0
    0.5340   -0.9370   -0.3230 C   0  0  2  0  0  0  0  0  0  0  0  0
    0.3160   -0.7580   -1.3830 H   0  0  0  0  0  0  0  0  0  0  0  0
   -0.7630   -1.1280    0.4360 C   0  0  2  0  0  0  0  0  0  0  0  0
   -0.4250   -1.3350    1.4680 H   0  0  0  0  0  0  0  0  0  0  0  0
   -1.7320   -2.2650    0.1100 C   0  0  0  0  0  0  0  0  0  0  0  0
   -1.8970   -2.3700   -0.9670 H   0  0  0  0  0  0  0  0  0  0  0  0
   -1.3680   -3.2280    0.4840 H   0  0  0  0  0  0  0  0  0  0  0  0
   -3.0300   -1.8470    0.8310 C   0  0  0  0  0  0  0  0  0  0  0  0
   -3.3220   -2.5790    1.5910 H   0  0  0  0  0  0  0  0  0  0  0  0
   -3.8750   -1.7590    0.1400 H   0  0  0  0  0  0  0  0  0  0  0  0
   -2.6640   -0.5100    1.4780 C   0  0  2  0  0  0  0  0  0  0  0  0
   -2.1480   -0.7350    2.4230 H   0  0  0  0  0  0  0  0  0  0  0  0
   -3.6910    0.3400    1.8660 O   0  0  0  0  0  0  0  0  0  0  0  0
   -4.3310   -0.1790    2.3830 H   0  0  0  0  0  0  0  0  0  0  0  0
    1.3760   -2.2090   -0.1960 C   0  0  0  0  0  0  0  0  0  0  0  0
    1.1600   -2.8660   -1.0470 H   0  0  0  0  0  0  0  0  0  0  0  0
    1.0940   -2.7770    0.7000 H   0  0  0  0  0  0  0  0  0  0  0  0
    2.8410   -1.9950   -0.1080 C   0  0  0  0  0  0  0  0  0  0  0  0
    3.4360   -2.9010   -0.0010 H   0  0  0  0  0  0  0  0  0  0  0  0
    3.4500   -0.8020   -0.1260 C   0  0  0  0  0  0  0  0  0  0  0  0
    2.6850    0.5000   -0.3010 C   0  0  2  0  0  0  0  0  0  0  0  0
    3.3570    1.6730    0.4550 C   0  0  0  0  0  0  0  0  0  0  0  0
    2.9910    2.6360    0.0760 H   0  0  0  0  0  0  0  0  0  0  0  0
    3.0770    1.6400    1.5170 H   0  0  0  0  0  0  0  0  0  0  0  0
    4.8710    1.6890    0.3860 C   0  0  0  0  0  0  0  0  0  0  0  0
    5.2620    2.5200    0.9870 H   0  0  0  0  0  0  0  0  0  0  0  0
    5.2250    1.8750   -0.6350 H   0  0  0  0  0  0  0  0  0  0  0  0
    5.4090    0.3750    0.9170 C   0  0  1  0  0  0  0  0  0  0  0  0
    5.0850    0.2000    1.9500 H   0  0  0  0  0  0  0  0  0  0  0  0
    4.9380   -0.7490    0.0090 C   0  0  0  0  0  0  0  0  0  0  0  0
    5.3800   -0.6250   -0.9900 H   0  0  0  0  0  0  0  0  0  0  0  0
    5.3470   -1.6970    0.3830 H   0  0  0  0  0  0  0  0  0  0  0  0
    6.8240    0.3750    0.8920 O   0  0  0  0  0  0  0  0  0  0  0  0
    7.1290    1.1010    1.4620 H   0  0  0  0  0  0  0  0  0  0  0  0
    2.6560    0.8360   -1.7980 C   0  0  0  0  0  0  0  0  0  0  0  0
    2.1140    1.7670   -1.9960 H   0  0  0  0  0  0  0  0  0  0  0  0
    2.1830    0.0480   -2.3930 H   0  0  0  0  0  0  0  0  0  0  0  0
    3.6670    0.9660   -2.2020 H   0  0  0  0  0  0  0  0  0  0  0  0
  1  2  1  0  0  0  0
  1  3  1  0  0  0  0
  1  4  1  0  0  0  0
  1  5  1  0  0  0  0
  5  6  1  0  0  0  0
  5 16  1  0  0  0  0
  5 24  1  0  0  0  0
  6  7  1  0  0  0  0
  6  8  1  0  0  0  0
  6  9  1  0  0  0  0
  9 10  1  0  0  0  0
  9 11  1  0  0  0  0
  9 12  1  0  0  0  0
 12 13  1  0  0  0  0
 12 14  1  0  0  0  0
 12 34  1  0  0  0  0
 14 15  1  0  0  0  0
 14 16  1  0  0  0  0
 14 28  1  0  0  0  0
 16 17  1  0  0  0  0
 16 18  1  0  0  0  0
 18 19  1  0  0  0  0
 18 20  1  0  0  0  0
 18 21  1  0  0  0  0
 21 22  1  0  0  0  0
 21 23  1  0  0  0  0
 21 24  1  0  0  0  0
 24 25  1  0  0  0  0
 24 26  1  0  0  0  0
 26 27  1  0  0  0  0
 28 29  1  0  0  0  0
 28 30  1  0  0  0  0
 28 31  1  0  0  0  0
 31 32  1  0  0  0  0
 31 33  2  0  0  0  0
 33 34  1  0  0  0  0
 33 43  1  0  0  0  0
 34 35  1  0  0  0  0
 34 48  1  0  0  0  0
 35 36  1  0  0  0  0
 35 37  1  0  0  0  0
 35 38  1  0  0  0  0
 38 39  1  0  0  0  0
 38 40  1  0  0  0  0
 38 41  1  0  0  0  0
 41 42  1  0  0  0  0
 41 43  1  0  0  0  0
 41 46  1  0  0  0  0
 43 44  1  0  0  0  0
 43 45  1  0  0  0  0
 46 47  1  0  0  0  0
 48 49  1  0  0  0  0
 48 50  1  0  0  0  0
 48 51  1  0  0  0  0
M  END
>  <index>
3

>  <name>
androstenediol

>  <systematicName>
(3_,17_)-Androst-5-ene-3,17-diol

>  <ChemSpiderID>
10188

>  <isomericSMILES>
C[C@]12CC[C@H]3[C@H]([C@@H]1CC[C@@H]2O)CC=C4[C@@]3(CC[C@@H](C4)O)C

>  <Activity>
5

>  <pKi_TeBG>
-9.1759996

>  <bindingClass>
3

$$$$
androstenedione
  MOE2013           3D
androstenedione
 47 50  0  0  1  0  0  0  0  0999 V2000
    2.5350    0.8290   -1.7610 C   0  0  0  0  0  0  0  0  0  0  0  0
    2.1660    1.8360   -1.9840 H   0  0  0  0  0  0  0  0  0  0  0  0
    1.9100    0.1240   -2.3170 H   0  0  0  0  0  0  0  0  0  0  0  0
    3.5410    0.7610   -2.1940 H   0  0  0  0  0  0  0  0  0  0  0  0
    2.5440    0.5450   -0.2520 C   0  0  2  0  0  0  0  0  0  0  0  0
    3.2790    1.7000    0.4690 C   0  0  0  0  0  0  0  0  0  0  0  0
    2.8890    2.6720    0.1440 H   0  0  0  0  0  0  0  0  0  0  0  0
    3.0890    1.6380    1.5500 H   0  0  0  0  0  0  0  0  0  0  0  0
    4.7780    1.7010    0.2590 C   0  0  0  0  0  0  0  0  0  0  0  0
    5.2270    2.4820    0.8820 H   0  0  0  0  0  0  0  0  0  0  0  0
    5.0460    1.9050   -0.7830 H   0  0  0  0  0  0  0  0  0  0  0  0
    5.3640    0.3790    0.6580 C   0  0  0  0  0  0  0  0  0  0  0  0
    6.5010    0.2840    1.1120 O   0  0  0  0  0  0  0  0  0  0  0  0
    4.5530   -0.8340    0.4180 C   0  0  0  0  0  0  0  0  0  0  0  0
    5.0640   -1.7770    0.5810 H   0  0  0  0  0  0  0  0  0  0  0  0
    3.2880   -0.7640   -0.0270 C   0  0  0  0  0  0  0  0  0  0  0  0
    2.5440   -2.0270   -0.3620 C   0  0  0  0  0  0  0  0  0  0  0  0
    2.4620   -2.1100   -1.4530 H   0  0  0  0  0  0  0  0  0  0  0  0
    3.0990   -2.9140   -0.0320 H   0  0  0  0  0  0  0  0  0  0  0  0
    1.1550   -2.0710    0.2520 C   0  0  0  0  0  0  0  0  0  0  0  0
    1.2360   -2.1530    1.3440 H   0  0  0  0  0  0  0  0  0  0  0  0
    0.6470   -2.9790   -0.0930 H   0  0  0  0  0  0  0  0  0  0  0  0
    0.3400   -0.8380   -0.1240 C   0  0  2  0  0  0  0  0  0  0  0  0
    0.2340   -0.8360   -1.2150 H   0  0  0  0  0  0  0  0  0  0  0  0
    1.0930    0.4390    0.3380 C   0  0  2  0  0  0  0  0  0  0  0  0
    1.2100    0.3350    1.4300 H   0  0  0  0  0  0  0  0  0  0  0  0
    0.2480    1.7190    0.1450 C   0  0  0  0  0  0  0  0  0  0  0  0
    0.7160    2.5590    0.6710 H   0  0  0  0  0  0  0  0  0  0  0  0
    0.2230    2.0010   -0.9120 H   0  0  0  0  0  0  0  0  0  0  0  0
   -1.1890    1.6030    0.6560 C   0  0  0  0  0  0  0  0  0  0  0  0
   -1.7450    2.5140    0.3990 H   0  0  0  0  0  0  0  0  0  0  0  0
   -1.1840    1.5610    1.7530 H   0  0  0  0  0  0  0  0  0  0  0  0
   -1.8710    0.3790    0.0830 C   0  0  1  0  0  0  0  0  0  0  0  0
   -1.0520   -0.8450    0.5100 C   0  0  1  0  0  0  0  0  0  0  0  0
   -0.9020   -0.8060    1.6030 H   0  0  0  0  0  0  0  0  0  0  0  0
   -1.9940   -2.0110    0.2730 C   0  0  0  0  0  0  0  0  0  0  0  0
   -2.0790   -2.2550   -0.7910 H   0  0  0  0  0  0  0  0  0  0  0  0
   -1.6760   -2.9200    0.7940 H   0  0  0  0  0  0  0  0  0  0  0  0
   -3.3270   -1.4970    0.8300 C   0  0  0  0  0  0  0  0  0  0  0  0
   -3.4320   -1.7410    1.8910 H   0  0  0  0  0  0  0  0  0  0  0  0
   -4.1750   -1.8820    0.2590 H   0  0  0  0  0  0  0  0  0  0  0  0
   -3.2130    0.0090    0.6840 C   0  0  0  0  0  0  0  0  0  0  0  0
   -4.1080    0.8050    0.9490 O   0  0  0  0  0  0  0  0  0  0  0  0
   -2.1110    0.5210   -1.4240 C   0  0  0  0  0  0  0  0  0  0  0  0
   -1.1880    0.6270   -2.0010 H   0  0  0  0  0  0  0  0  0  0  0  0
   -2.7200    1.4100   -1.6290 H   0  0  0  0  0  0  0  0  0  0  0  0
   -2.6610   -0.3280   -1.8450 H   0  0  0  0  0  0  0  0  0  0  0  0
  1  2  1  0  0  0  0
  1  3  1  0  0  0  0
  1  4  1  0  0  0  0
  1  5  1  0  0  0  0
  5  6  1  0  0  0  0
  5 16  1  0  0  0  0
  5 25  1  0  0  0  0
  6  7  1  0  0  0  0
  6  8  1  0  0  0  0
  6  9  1  0  0  0  0
  9 10  1  0  0  0  0
  9 11  1  0  0  0  0
  9 12  1  0  0  0  0
 12 13  2  0  0  0  0
 12 14  1  0  0  0  0
 14 15  1  0  0  0  0
 14 16  2  0  0  0  0
 16 17  1  0  0  0  0
 17 18  1  0  0  0  0
 17 19  1  0  0  0  0
 17 20  1  0  0  0  0
 20 21  1  0  0  0  0
 20 22  1  0  0  0  0
 20 23  1  0  0  0  0
 23 24  1  0  0  0  0
 23 25  1  0  0  0  0
 23 34  1  0  0  0  0
 25 26  1  0  0  0  0
 25 27  1  0  0  0  0
 27 28  1  0  0  0  0
 27 29  1  0  0  0  0
 27 30  1  0  0  0  0
 30 31  1  0  0  0  0
 30 32  1  0  0  0  0
 30 33  1  0  0  0  0
 33 34  1  0  0  0  0
 33 42  1  0  0  0  0
 33 44  1  0  0  0  0
 34 35  1  0  0  0  0
 34 36  1  0  0  0  0
 36 37  1  0  0  0  0
 36 38  1  0  0  0  0
 36 39  1  0  0  0  0
 39 40  1  0  0  0  0
 39 41  1  0  0  0  0
 39 42  1  0  0  0  0
 42 43  2  0  0  0  0
 44 45  1  0  0  0  0
 44 46  1  0  0  0  0
 44 47  1  0  0  0  0
M  END
>  <index>
4

>  <name>
androstenedione

>  <systematicName>
Androst-4-ene-3,17-dione

>  <ChemSpiderID>
5898

>  <isomericSMILES>
C[C@]12CCC(=O)C=C1CC[C@@H]3[C@@H]2CC[C@]4([C@H]3CCC4=O)C

>  <Activity>
5.763

>  <pKi_TeBG>
-7.4619999

>  <bindingClass>
3

$$$$
androsterone
  MOE2013           3D
androsterone
 51 54  0  0  1  0  0  0  0  0999 V2000
    2.5600    0.6660   -1.7170 C   0  0  0  0  0  0  0  0  0  0  0  0
    3.5920    0.6880   -2.0820 H   0  0  0  0  0  0  0  0  0  0  0  0
    2.0910    1.5920   -2.0660 H   0  0  0  0  0  0  0  0  0  0  0  0
    2.0560   -0.1560   -2.2320 H   0  0  0  0  0  0  0  0  0  0  0  0
    2.5010    0.5410   -0.1840 C   0  0  2  0  0  0  0  0  0  0  0  0
    3.2180    1.7840    0.4040 C   0  0  0  0  0  0  0  0  0  0  0  0
    3.3040    2.5720   -0.3550 H   0  0  0  0  0  0  0  0  0  0  0  0
    2.6240    2.2310    1.2100 H   0  0  0  0  0  0  0  0  0  0  0  0
    4.5890    1.5300    0.9980 C   0  0  0  0  0  0  0  0  0  0  0  0
    4.4700    1.1870    2.0360 H   0  0  0  0  0  0  0  0  0  0  0  0
    5.1340    2.4790    1.0870 H   0  0  0  0  0  0  0  0  0  0  0  0
    5.4250    0.5220    0.2430 C   0  0  2  0  0  0  0  0  0  0  0  0
    5.7440    0.9480   -0.7160 H   0  0  0  0  0  0  0  0  0  0  0  0
    4.6980   -0.7960   -0.0110 C   0  0  0  0  0  0  0  0  0  0  0  0
    4.8520   -1.0770   -1.0610 H   0  0  0  0  0  0  0  0  0  0  0  0
    5.1610   -1.6050    0.5690 H   0  0  0  0  0  0  0  0  0  0  0  0
    3.2060   -0.7480    0.3010 C   0  0  2  0  0  0  0  0  0  0  0  0
    3.1320   -0.7640    1.4010 H   0  0  0  0  0  0  0  0  0  0  0  0
    2.5110   -2.0180   -0.1870 C   0  0  0  0  0  0  0  0  0  0  0  0
    2.5620   -2.1030   -1.2790 H   0  0  0  0  0  0  0  0  0  0  0  0
    3.0300   -2.9000    0.2090 H   0  0  0  0  0  0  0  0  0  0  0  0
    1.0630   -2.0640    0.2730 C   0  0  0  0  0  0  0  0  0  0  0  0
    1.0410   -2.1860    1.3630 H   0  0  0  0  0  0  0  0  0  0  0  0
    0.5870   -2.9570   -0.1490 H   0  0  0  0  0  0  0  0  0  0  0  0
    0.2820   -0.8160   -0.1240 C   0  0  2  0  0  0  0  0  0  0  0  0
    0.1920   -0.8270   -1.2150 H   0  0  0  0  0  0  0  0  0  0  0  0
    1.0200    0.4780    0.3250 C   0  0  2  0  0  0  0  0  0  0  0  0
    1.0830    0.4260    1.4250 H   0  0  0  0  0  0  0  0  0  0  0  0
    0.1850    1.7420    0.0340 C   0  0  0  0  0  0  0  0  0  0  0  0
    0.6420    2.6240    0.4940 H   0  0  0  0  0  0  0  0  0  0  0  0
    0.1670    1.9450   -1.0420 H   0  0  0  0  0  0  0  0  0  0  0  0
   -1.2550    1.6510    0.5480 C   0  0  0  0  0  0  0  0  0  0  0  0
   -1.8090    2.5490    0.2500 H   0  0  0  0  0  0  0  0  0  0  0  0
   -1.2520    1.6550    1.6460 H   0  0  0  0  0  0  0  0  0  0  0  0
   -1.9360    0.4040    0.0230 C   0  0  1  0  0  0  0  0  0  0  0  0
   -1.1180   -0.8040    0.4950 C   0  0  1  0  0  0  0  0  0  0  0  0
   -0.9770   -0.7280    1.5870 H   0  0  0  0  0  0  0  0  0  0  0  0
   -2.0570   -1.9790    0.2970 C   0  0  0  0  0  0  0  0  0  0  0  0
   -2.1450   -2.2570   -0.7590 H   0  0  0  0  0  0  0  0  0  0  0  0
   -1.7380   -2.8700    0.8470 H   0  0  0  0  0  0  0  0  0  0  0  0
   -3.3890   -1.4470    0.8410 C   0  0  0  0  0  0  0  0  0  0  0  0
   -3.4890   -1.6500    1.9110 H   0  0  0  0  0  0  0  0  0  0  0  0
   -4.2380   -1.8560    0.2890 H   0  0  0  0  0  0  0  0  0  0  0  0
   -3.2800    0.0540    0.6360 C   0  0  0  0  0  0  0  0  0  0  0  0
   -4.1830    0.8540    0.8580 O   0  0  0  0  0  0  0  0  0  0  0  0
   -2.1740    0.4880   -1.4890 C   0  0  0  0  0  0  0  0  0  0  0  0
   -1.2520    0.5600   -2.0700 H   0  0  0  0  0  0  0  0  0  0  0  0
   -2.7750    1.3750   -1.7290 H   0  0  0  0  0  0  0  0  0  0  0  0
   -2.7340   -0.3700   -1.8760 H   0  0  0  0  0  0  0  0  0  0  0  0
    6.6000    0.2650    1.0060 O   0  0  0  0  0  0  0  0  0  0  0  0
    7.0740    1.1070    1.1130 H   0  0  0  0  0  0  0  0  0  0  0  0
  1  2  1  0  0  0  0
  1  3  1  0  0  0  0
  1  4  1  0  0  0  0
  1  5  1  0  0  0  0
  5  6  1  0  0  0  0
  5 17  1  0  0  0  0
  5 27  1  0  0  0  0
  6  7  1  0  0  0  0
  6  8  1  0  0  0  0
  6  9  1  0  0  0  0
  9 10  1  0  0  0  0
  9 11  1  0  0  0  0
  9 12  1  0  0  0  0
 12 13  1  0  0  0  0
 12 14  1  0  0  0  0
 12 50  1  0  0  0  0
 14 15  1  0  0  0  0
 14 16  1  0  0  0  0
 14 17  1  0  0  0  0
 17 18  1  0  0  0  0
 17 19  1  0  0  0  0
 19 20  1  0  0  0  0
 19 21  1  0  0  0  0
 19 22  1  0  0  0  0
 22 23  1  0  0  0  0
 22 24  1  0  0  0  0
 22 25  1  0  0  0  0
 25 26  1  0  0  0  0
 25 27  1  0  0  0  0
 25 36  1  0  0  0  0
 27 28  1  0  0  0  0
 27 29  1  0  0  0  0
 29 30  1  0  0  0  0
 29 31  1  0  0  0  0
 29 32  1  0  0  0  0
 32 33  1  0  0  0  0
 32 34  1  0  0  0  0
 32 35  1  0  0  0  0
 35 36  1  0  0  0  0
 35 44  1  0  0  0  0
 35 46  1  0  0  0  0
 36 37  1  0  0  0  0
 36 38  1  0  0  0  0
 38 39  1  0  0  0  0
 38 40  1  0  0  0  0
 38 41  1  0  0  0  0
 41 42  1  0  0  0  0
 41 43  1  0  0  0  0
 41 44  1  0  0  0  0
 44 45  2  0  0  0  0
 46 47  1  0  0  0  0
 46 48  1  0  0  0  0
 46 49  1  0  0  0  0
 50 51  1  0  0  0  0
M  END
>  <index>
5

>  <name>
androsterone

>  <systematicName>
(3_,5_)-3-Hydroxyandrostan-17-one

>  <ChemSpiderID>
5668

>  <isomericSMILES>
C[C@]12CC[C@H](C[C@@H]1CC[C@@H]3[C@@H]2CC[C@]4([C@H]3CCC4=O)C)O

>  <Activity>
5.6129999

>  <pKi_TeBG>
-7.1459999

>  <bindingClass>
3

$$$$
corticosterone
  MOE2013           3D
corticosterone
 55 58  0  0  1  0  0  0  0  0999 V2000
    2.6650    0.8400   -1.7850 C   0  0  0  0  0  0  0  0  0  0  0  0
    2.4310    1.8830   -2.0210 H   0  0  0  0  0  0  0  0  0  0  0  0
    1.9730    0.2080   -2.3490 H   0  0  0  0  0  0  0  0  0  0  0  0
    3.6640    0.6590   -2.2010 H   0  0  0  0  0  0  0  0  0  0  0  0
    2.6200    0.5630   -0.2740 C   0  0  2  0  0  0  0  0  0  0  0  0
    3.3210    1.7210    0.4720 C   0  0  0  0  0  0  0  0  0  0  0  0
    2.9160    2.6890    0.1540 H   0  0  0  0  0  0  0  0  0  0  0  0
    3.1160    1.6430    1.5490 H   0  0  0  0  0  0  0  0  0  0  0  0
    4.8240    1.7470    0.2870 C   0  0  0  0  0  0  0  0  0  0  0  0
    5.2520    2.5300    0.9240 H   0  0  0  0  0  0  0  0  0  0  0  0
    5.1040    1.9630   -0.7490 H   0  0  0  0  0  0  0  0  0  0  0  0
    5.4250    0.4310    0.6850 C   0  0  0  0  0  0  0  0  0  0  0  0
    6.5610    0.3370    1.1410 O   0  0  0  0  0  0  0  0  0  0  0  0
    4.6390   -0.7920    0.4330 C   0  0  0  0  0  0  0  0  0  0  0  0
    5.1640   -1.7270    0.5930 H   0  0  0  0  0  0  0  0  0  0  0  0
    3.3870   -0.7350   -0.0420 C   0  0  0  0  0  0  0  0  0  0  0  0
    2.6920   -2.0070   -0.4290 C   0  0  0  0  0  0  0  0  0  0  0  0
    2.6220   -2.0580   -1.5230 H   0  0  0  0  0  0  0  0  0  0  0  0
    3.2690   -2.8880   -0.1210 H   0  0  0  0  0  0  0  0  0  0  0  0
    1.3090   -2.0970    0.1740 C   0  0  0  0  0  0  0  0  0  0  0  0
    1.3860   -2.2000    1.2640 H   0  0  0  0  0  0  0  0  0  0  0  0
    0.8300   -3.0130   -0.1940 H   0  0  0  0  0  0  0  0  0  0  0  0
    0.4630   -0.8770   -0.1850 C   0  0  2  0  0  0  0  0  0  0  0  0
    0.3550   -0.8600   -1.2750 H   0  0  0  0  0  0  0  0  0  0  0  0
    1.1630    0.4210    0.2990 C   0  0  2  0  0  0  0  0  0  0  0  0
    1.2820    0.2850    1.3880 H   0  0  0  0  0  0  0  0  0  0  0  0
    0.2620    1.6830    0.1730 C   0  0  2  0  0  0  0  0  0  0  0  0
    0.6980    2.4880    0.7760 H   0  0  0  0  0  0  0  0  0  0  0  0
   -1.1770    1.4640    0.6720 C   0  0  0  0  0  0  0  0  0  0  0  0
   -1.1500    1.4010    1.7680 H   0  0  0  0  0  0  0  0  0  0  0  0
   -1.7940    2.3380    0.4280 H   0  0  0  0  0  0  0  0  0  0  0  0
   -1.8260    0.2000    0.1040 C   0  0  1  0  0  0  0  0  0  0  0  0
   -0.9130   -0.9760    0.4600 C   0  0  1  0  0  0  0  0  0  0  0  0
   -0.7510   -0.9770    1.5510 H   0  0  0  0  0  0  0  0  0  0  0  0
   -1.7660   -2.1960    0.1670 C   0  0  0  0  0  0  0  0  0  0  0  0
   -1.7260   -2.4710   -0.8930 H   0  0  0  0  0  0  0  0  0  0  0  0
   -1.4470   -3.0710    0.7440 H   0  0  0  0  0  0  0  0  0  0  0  0
   -3.1810   -1.7660    0.5560 C   0  0  0  0  0  0  0  0  0  0  0  0
   -3.5120   -2.2940    1.4580 H   0  0  0  0  0  0  0  0  0  0  0  0
   -3.8780   -2.0410   -0.2400 H   0  0  0  0  0  0  0  0  0  0  0  0
   -3.1080   -0.2550    0.8320 C   0  0  2  0  0  0  0  0  0  0  0  0
   -2.9650   -0.1440    1.9180 H   0  0  0  0  0  0  0  0  0  0  0  0
   -4.3570    0.5620    0.5230 C   0  0  0  0  0  0  0  0  0  0  0  0
   -4.5490    1.6470    1.0800 O   0  0  0  0  0  0  0  0  0  0  0  0
   -5.3820    0.0410   -0.4670 C   0  0  0  0  0  0  0  0  0  0  0  0
   -5.8940   -0.8170   -0.0240 H   0  0  0  0  0  0  0  0  0  0  0  0
   -4.8970   -0.2570   -1.3970 H   0  0  0  0  0  0  0  0  0  0  0  0
   -6.3610    1.0150   -0.7900 O   0  0  0  0  0  0  0  0  0  0  0  0
   -6.3400    1.6690   -0.0630 H   0  0  0  0  0  0  0  0  0  0  0  0
   -2.0940    0.3500   -1.4040 C   0  0  0  0  0  0  0  0  0  0  0  0
   -1.1850    0.4430   -2.0010 H   0  0  0  0  0  0  0  0  0  0  0  0
   -2.6980    1.2430   -1.6040 H   0  0  0  0  0  0  0  0  0  0  0  0
   -2.6340   -0.5050   -1.8220 H   0  0  0  0  0  0  0  0  0  0  0  0
    0.2240    2.1650   -1.1630 O   0  0  0  0  0  0  0  0  0  0  0  0
   -0.3040    2.9820   -1.1690 H   0  0  0  0  0  0  0  0  0  0  0  0
  1  2  1  0  0  0  0
  1  3  1  0  0  0  0
  1  4  1  0  0  0  0
  1  5  1  0  0  0  0
  5  6  1  0  0  0  0
  5 16  1  0  0  0  0
  5 25  1  0  0  0  0
  6  7  1  0  0  0  0
  6  8  1  0  0  0  0
  6  9  1  0  0  0  0
  9 10  1  0  0  0  0
  9 11  1  0  0  0  0
  9 12  1  0  0  0  0
 12 13  2  0  0  0  0
 12 14  1  0  0  0  0
 14 15  1  0  0  0  0
 14 16  2  0  0  0  0
 16 17  1  0  0  0  0
 17 18  1  0  0  0  0
 17 19  1  0  0  0  0
 17 20  1  0  0  0  0
 20 21  1  0  0  0  0
 20 22  1  0  0  0  0
 20 23  1  0  0  0  0
 23 24  1  0  0  0  0
 23 25  1  0  0  0  0
 23 33  1  0  0  0  0
 25 26  1  0  0  0  0
 25 27  1  0  0  0  0
 27 28  1  0  0  0  0
 27 29  1  0  0  0  0
 27 54  1  0  0  0  0
 29 30  1  0  0  0  0
 29 31  1  0  0  0  0
 29 32  1  0  0  0  0
 32 33  1  0  0  0  0
 32 41  1  0  0  0  0
 32 50  1  0  0  0  0
 33 34  1  0  0  0  0
 33 35  1  0  0  0  0
 35 36  1  0  0  0  0
 35 37  1  0  0  0  0
 35 38  1  0  0  0  0
 38 39  1  0  0  0  0
 38 40  1  0  0  0  0
 38 41  1  0  0  0  0
 41 42  1  0  0  0  0
 41 43  1  0  0  0  0
 43 44  2  0  0  0  0
 43 45  1  0  0  0  0
 45 46  1  0  0  0  0
 45 47  1  0  0  0  0
 45 48  1  0  0  0  0
 48 49  1  0  0  0  0
 50 51  1  0  0  0  0
 50 52  1  0  0  0  0
 50 53  1  0  0  0  0
 54 55  1  0  0  0  0
M  END
>  <index>
6

>  <name>
corticosterone

>  <systematicName>
(11_)-11,21-Dihydroxypregn-4-ene-3,20-dione

>  <ChemSpiderID>
5550

>  <isomericSMILES>
C[C@]12CCC(=O)C=C1CC[C@@H]3[C@@H]2[C@H](C[C@]4([C@H]3CC[C@@H]4C(=O)CO)C)O

>  <Activity>
7.881

>  <pKi_TeBG>
-6.342

>  <bindingClass>
1

$$$$
cortisol
  MOE2013           3D
cortisol
 56 59  0  0  1  0  0  0  0  0999 V2000
    2.4720    0.5300   -2.0630 C   0  0  0  0  0  0  0  0  0  0  0  0
    2.1420    1.5070   -2.4300 H   0  0  0  0  0  0  0  0  0  0  0  0
    1.7770   -0.2130   -2.4610 H   0  0  0  0  0  0  0  0  0  0  0  0
    3.4360    0.3330   -2.5520 H   0  0  0  0  0  0  0  0  0  0  0  0
    2.6200    0.5010   -0.5240 C   0  0  2  0  0  0  0  0  0  0  0  0
    3.4620    1.7620   -0.2060 C   0  0  0  0  0  0  0  0  0  0  0  0
    4.0960    2.0000   -1.0740 H   0  0  0  0  0  0  0  0  0  0  0  0
    2.8260    2.6450   -0.0840 H   0  0  0  0  0  0  0  0  0  0  0  0
    4.4050    1.6600    0.9650 C   0  0  0  0  0  0  0  0  0  0  0  0
    3.8520    1.6500    1.9110 H   0  0  0  0  0  0  0  0  0  0  0  0
    5.0730    2.5290    0.9790 H   0  0  0  0  0  0  0  0  0  0  0  0
    5.2400    0.4130    0.9020 C   0  0  0  0  0  0  0  0  0  0  0  0
    6.4270    0.3690    1.2120 O   0  0  0  0  0  0  0  0  0  0  0  0
    4.5660   -0.8160    0.4590 C   0  0  0  0  0  0  0  0  0  0  0  0
    5.0830   -1.7430    0.6830 H   0  0  0  0  0  0  0  0  0  0  0  0
    3.3740   -0.7760   -0.1490 C   0  0  0  0  0  0  0  0  0  0  0  0
    2.6780   -2.0670   -0.4680 C   0  0  0  0  0  0  0  0  0  0  0  0
    2.5780   -2.1820   -1.5530 H   0  0  0  0  0  0  0  0  0  0  0  0
    3.2590   -2.9340   -0.1280 H   0  0  0  0  0  0  0  0  0  0  0  0
    1.3140   -2.1090    0.1940 C   0  0  0  0  0  0  0  0  0  0  0  0
    1.4350   -2.1800    1.2830 H   0  0  0  0  0  0  0  0  0  0  0  0
    0.8060   -3.0260   -0.1240 H   0  0  0  0  0  0  0  0  0  0  0  0
    0.4700   -0.8810   -0.1570 C   0  0  2  0  0  0  0  0  0  0  0  0
    0.3020   -0.9140   -1.2370 H   0  0  0  0  0  0  0  0  0  0  0  0
    1.2310    0.4340    0.2230 C   0  0  2  0  0  0  0  0  0  0  0  0
    1.4600    0.3420    1.2980 H   0  0  0  0  0  0  0  0  0  0  0  0
    0.3220    1.6930    0.1400 C   0  0  2  0  0  0  0  0  0  0  0  0
    0.7860    2.4870    0.7370 H   0  0  0  0  0  0  0  0  0  0  0  0
   -1.1080    1.4900    0.6920 C   0  0  0  0  0  0  0  0  0  0  0  0
   -1.0320    1.4380    1.7850 H   0  0  0  0  0  0  0  0  0  0  0  0
   -1.7230    2.3700    0.4640 H   0  0  0  0  0  0  0  0  0  0  0  0
   -1.8050    0.2310    0.1570 C   0  0  1  0  0  0  0  0  0  0  0  0
   -0.8910   -0.9460    0.5230 C   0  0  1  0  0  0  0  0  0  0  0  0
   -0.7020   -0.9330    1.6080 H   0  0  0  0  0  0  0  0  0  0  0  0
   -1.7540   -2.1670    0.2510 C   0  0  0  0  0  0  0  0  0  0  0  0
   -1.6890   -2.4820   -0.7970 H   0  0  0  0  0  0  0  0  0  0  0  0
   -1.4530   -3.0230    0.8650 H   0  0  0  0  0  0  0  0  0  0  0  0
   -3.1840   -1.7290    0.5840 C   0  0  0  0  0  0  0  0  0  0  0  0
   -3.5540   -2.2850    1.4540 H   0  0  0  0  0  0  0  0  0  0  0  0
   -3.8300   -1.9880   -0.2590 H   0  0  0  0  0  0  0  0  0  0  0  0
   -3.1150   -0.2190    0.8680 C   0  0  2  0  0  0  0  0  0  0  0  0
   -4.3630    0.5980    0.5240 C   0  0  0  0  0  0  0  0  0  0  0  0
   -4.5590    1.6790    1.0920 O   0  0  0  0  0  0  0  0  0  0  0  0
   -5.3770    0.0640   -0.4670 C   0  0  0  0  0  0  0  0  0  0  0  0
   -5.8830   -0.7980   -0.0240 H   0  0  0  0  0  0  0  0  0  0  0  0
   -4.8840   -0.2310   -1.3940 H   0  0  0  0  0  0  0  0  0  0  0  0
   -6.3620    1.0280   -0.7960 O   0  0  0  0  0  0  0  0  0  0  0  0
   -6.4110    1.6420   -0.0370 H   0  0  0  0  0  0  0  0  0  0  0  0
   -2.9880   -0.0850    2.2920 O   0  0  0  0  0  0  0  0  0  0  0  0
   -3.2200    0.8430    2.5060 H   0  0  0  0  0  0  0  0  0  0  0  0
   -2.0680    0.3630   -1.3570 C   0  0  0  0  0  0  0  0  0  0  0  0
   -1.1590    0.4510   -1.9540 H   0  0  0  0  0  0  0  0  0  0  0  0
   -2.6720    1.2530   -1.5680 H   0  0  0  0  0  0  0  0  0  0  0  0
   -2.6040   -0.4980   -1.7690 H   0  0  0  0  0  0  0  0  0  0  0  0
    0.2460    2.1970   -1.1860 O   0  0  0  0  0  0  0  0  0  0  0  0
   -0.2550    3.0310   -1.1610 H   0  0  0  0  0  0  0  0  0  0  0  0
  1  2  1  0  0  0  0
  1  3  1  0  0  0  0
  1  4  1  0  0  0  0
  1  5  1  0  0  0  0
  5  6  1  0  0  0  0
  5 16  1  0  0  0  0
  5 25  1  0  0  0  0
  6  7  1  0  0  0  0
  6  8  1  0  0  0  0
  6  9  1  0  0  0  0
  9 10  1  0  0  0  0
  9 11  1  0  0  0  0
  9 12  1  0  0  0  0
 12 13  2  0  0  0  0
 12 14  1  0  0  0  0
 14 15  1  0  0  0  0
 14 16  2  0  0  0  0
 16 17  1  0  0  0  0
 17 18  1  0  0  0  0
 17 19  1  0  0  0  0
 17 20  1  0  0  0  0
 20 21  1  0  0  0  0
 20 22  1  0  0  0  0
 20 23  1  0  0  0  0
 23 24  1  0  0  0  0
 23 25  1  0  0  0  0
 23 33  1  0  0  0  0
 25 26  1  0  0  0  0
 25 27  1  0  0  0  0
 27 28  1  0  0  0  0
 27 29  1  0  0  0  0
 27 55  1  0  0  0  0
 29 30  1  0  0  0  0
 29 31  1  0  0  0  0
 29 32  1  0  0  0  0
 32 33  1  0  0  0  0
 32 41  1  0  0  0  0
 32 51  1  0  0  0  0
 33 34  1  0  0  0  0
 33 35  1  0  0  0  0
 35 36  1  0  0  0  0
 35 37  1  0  0  0  0
 35 38  1  0  0  0  0
 38 39  1  0  0  0  0
 38 40  1  0  0  0  0
 38 41  1  0  0  0  0
 41 42  1  0  0  0  0
 41 49  1  0  0  0  0
 42 43  2  0  0  0  0
 42 44  1  0  0  0  0
 44 45  1  0  0  0  0
 44 46  1  0  0  0  0
 44 47  1  0  0  0  0
 47 48  1  0  0  0  0
 49 50  1  0  0  0  0
 51 52  1  0  0  0  0
 51 53  1  0  0  0  0
 51 54  1  0  0  0  0
 55 56  1  0  0  0  0
M  END
>  <index>
7

>  <name>
cortisol

>  <systematicName>
(11_)-11,17,21-Trihydroxypregn-4-ene-3,20-dione

>  <ChemSpiderID>
5551

>  <isomericSMILES>
C[C@]12CCC(=O)C=C1CC[C@@H]3[C@@H]2[C@H](C[C@]4([C@H]3CC[C@@]4(C(=O)CO)O)C)O

>  <Activity>
7.881

>  <pKi_TeBG>
-6.204

>  <bindingClass>
1

$$$$
cortisone
  MOE2013           3D
cortisone
 54 57  0  0  1  0  0  0  0  0999 V2000
    2.5840    0.8520   -1.7770 C   0  0  0  0  0  0  0  0  0  0  0  0
    2.2020    1.8510   -2.0070 H   0  0  0  0  0  0  0  0  0  0  0  0
    1.9710    0.1370   -2.3360 H   0  0  0  0  0  0  0  0  0  0  0  0
    3.5920    0.7990   -2.2050 H   0  0  0  0  0  0  0  0  0  0  0  0
    2.5920    0.5660   -0.2690 C   0  0  2  0  0  0  0  0  0  0  0  0
    3.3100    1.7170    0.4770 C   0  0  0  0  0  0  0  0  0  0  0  0
    2.9150    2.6920    0.1730 H   0  0  0  0  0  0  0  0  0  0  0  0
    3.1160    1.6330    1.5550 H   0  0  0  0  0  0  0  0  0  0  0  0
    4.8120    1.7410    0.2750 C   0  0  0  0  0  0  0  0  0  0  0  0
    5.2470    2.5220    0.9080 H   0  0  0  0  0  0  0  0  0  0  0  0
    5.0820    1.9570   -0.7630 H   0  0  0  0  0  0  0  0  0  0  0  0
    5.4130    0.4240    0.6680 C   0  0  0  0  0  0  0  0  0  0  0  0
    6.5480    0.3290    1.1240 O   0  0  0  0  0  0  0  0  0  0  0  0
    4.6230   -0.7950    0.4080 C   0  0  0  0  0  0  0  0  0  0  0  0
    5.1480   -1.7320    0.5610 H   0  0  0  0  0  0  0  0  0  0  0  0
    3.3660   -0.7350   -0.0550 C   0  0  0  0  0  0  0  0  0  0  0  0
    2.6650   -2.0100   -0.4240 C   0  0  0  0  0  0  0  0  0  0  0  0
    2.5750   -2.0670   -1.5160 H   0  0  0  0  0  0  0  0  0  0  0  0
    3.2480   -2.8900   -0.1230 H   0  0  0  0  0  0  0  0  0  0  0  0
    1.2920   -2.1010    0.2060 C   0  0  0  0  0  0  0  0  0  0  0  0
    1.3890   -2.1950    1.2960 H   0  0  0  0  0  0  0  0  0  0  0  0
    0.8080   -3.0200   -0.1460 H   0  0  0  0  0  0  0  0  0  0  0  0
    0.4420   -0.8850   -0.1470 C   0  0  2  0  0  0  0  0  0  0  0  0
    0.3160   -0.8720   -1.2350 H   0  0  0  0  0  0  0  0  0  0  0  0
    1.1520    0.4100    0.3180 C   0  0  2  0  0  0  0  0  0  0  0  0
    1.2640    0.3370    1.4120 H   0  0  0  0  0  0  0  0  0  0  0  0
    0.2150    1.6140    0.1260 C   0  0  0  0  0  0  0  0  0  0  0  0
    0.5630    2.6730   -0.3910 O   0  0  0  0  0  0  0  0  0  0  0  0
   -1.1880    1.4780    0.6940 C   0  0  0  0  0  0  0  0  0  0  0  0
   -1.0920    1.4680    1.7860 H   0  0  0  0  0  0  0  0  0  0  0  0
   -1.7700    2.3670    0.4280 H   0  0  0  0  0  0  0  0  0  0  0  0
   -1.8490    0.2140    0.1530 C   0  0  1  0  0  0  0  0  0  0  0  0
   -0.9340   -0.9690    0.5090 C   0  0  1  0  0  0  0  0  0  0  0  0
   -0.7600   -0.9710    1.5980 H   0  0  0  0  0  0  0  0  0  0  0  0
   -1.7920   -2.1860    0.2170 C   0  0  0  0  0  0  0  0  0  0  0  0
   -1.7260   -2.4830   -0.8370 H   0  0  0  0  0  0  0  0  0  0  0  0
   -1.4910   -3.0510    0.8160 H   0  0  0  0  0  0  0  0  0  0  0  0
   -3.2200   -1.7490    0.5590 C   0  0  0  0  0  0  0  0  0  0  0  0
   -3.5870   -2.3110    1.4270 H   0  0  0  0  0  0  0  0  0  0  0  0
   -3.8690   -2.0020   -0.2840 H   0  0  0  0  0  0  0  0  0  0  0  0
   -3.1540   -0.2410    0.8550 C   0  0  2  0  0  0  0  0  0  0  0  0
   -4.3960    0.5810    0.5160 C   0  0  0  0  0  0  0  0  0  0  0  0
   -4.5830    1.6620    1.0860 O   0  0  0  0  0  0  0  0  0  0  0  0
   -5.4070    0.0560   -0.4800 C   0  0  0  0  0  0  0  0  0  0  0  0
   -5.9190   -0.8060   -0.0440 H   0  0  0  0  0  0  0  0  0  0  0  0
   -4.9090   -0.2370   -1.4060 H   0  0  0  0  0  0  0  0  0  0  0  0
   -6.3830    1.0280   -0.8080 O   0  0  0  0  0  0  0  0  0  0  0  0
   -6.4290    1.6430   -0.0480 H   0  0  0  0  0  0  0  0  0  0  0  0
   -3.0140   -0.1060    2.2790 O   0  0  0  0  0  0  0  0  0  0  0  0
   -3.3020    0.8030    2.5060 H   0  0  0  0  0  0  0  0  0  0  0  0
   -2.0770    0.3820   -1.3630 C   0  0  0  0  0  0  0  0  0  0  0  0
   -1.1550    0.6040   -1.9080 H   0  0  0  0  0  0  0  0  0  0  0  0
   -2.7570    1.2170   -1.5630 H   0  0  0  0  0  0  0  0  0  0  0  0
   -2.5110   -0.5090   -1.8270 H   0  0  0  0  0  0  0  0  0  0  0  0
  1  2  1  0  0  0  0
  1  3  1  0  0  0  0
  1  4  1  0  0  0  0
  1  5  1  0  0  0  0
  5  6  1  0  0  0  0
  5 16  1  0  0  0  0
  5 25  1  0  0  0  0
  6  7  1  0  0  0  0
  6  8  1  0  0  0  0
  6  9  1  0  0  0  0
  9 10  1  0  0  0  0
  9 11  1  0  0  0  0
  9 12  1  0  0  0  0
 12 13  2  0  0  0  0
 12 14  1  0  0  0  0
 14 15  1  0  0  0  0
 14 16  2  0  0  0  0
 16 17  1  0  0  0  0
 17 18  1  0  0  0  0
 17 19  1  0  0  0  0
 17 20  1  0  0  0  0
 20 21  1  0  0  0  0
 20 22  1  0  0  0  0
 20 23  1  0  0  0  0
 23 24  1  0  0  0  0
 23 25  1  0  0  0  0
 23 33  1  0  0  0  0
 25 26  1  0  0  0  0
 25 27  1  0  0  0  0
 27 28  2  0  0  0  0
 27 29  1  0  0  0  0
 29 30  1  0  0  0  0
 29 31  1  0  0  0  0
 29 32  1  0  0  0  0
 32 33  1  0  0  0  0
 32 41  1  0  0  0  0
 32 51  1  0  0  0  0
 33 34  1  0  0  0  0
 33 35  1  0  0  0  0
 35 36  1  0  0  0  0
 35 37  1  0  0  0  0
 35 38  1  0  0  0  0
 38 39  1  0  0  0  0
 38 40  1  0  0  0  0
 38 41  1  0  0  0  0
 41 42  1  0  0  0  0
 41 49  1  0  0  0  0
 42 43  2  0  0  0  0
 42 44  1  0  0  0  0
 44 45  1  0  0  0  0
 44 46  1  0  0  0  0
 44 47  1  0  0  0  0
 47 48  1  0  0  0  0
 49 50  1  0  0  0  0
 51 52  1  0  0  0  0
 51 53  1  0  0  0  0
 51 54  1  0  0  0  0
M  END
>  <index>
8

>  <name>
cortisone

>  <systematicName>
17,21-Dihydroxypregn-4-ene-3,11,20-trione

>  <ChemSpiderID>
193441

>  <isomericSMILES>
C[C@]12CCC(=O)C=C1CC[C@@H]3[C@@H]2C(=O)C[C@]4([C@H]3CC[C@@]4(C(=O)CO)O)C

>  <Activity>
6.8920002

>  <pKi_TeBG>
-6.4310002

>  <bindingClass>
2

$$$$
dehydroepiandrosterone
  MOE2013           3D
dehydroepiandrosterone
 49 52  0  0  1  0  0  0  0  0999 V2000
   -2.1630    0.5560   -1.4670 C   0  0  0  0  0  0  0  0  0  0  0  0
   -1.2330    0.6540   -2.0320 H   0  0  0  0  0  0  0  0  0  0  0  0
   -2.7630    1.4500   -1.6810 H   0  0  0  0  0  0  0  0  0  0  0  0
   -2.7140   -0.2890   -1.8940 H   0  0  0  0  0  0  0  0  0  0  0  0
   -1.9440    0.4150    0.0420 C   0  0  2  0  0  0  0  0  0  0  0  0
   -1.2540    1.6300    0.6250 C   0  0  0  0  0  0  0  0  0  0  0  0
   -1.7950    2.5480    0.3600 H   0  0  0  0  0  0  0  0  0  0  0  0
   -1.2640    1.5880    1.7220 H   0  0  0  0  0  0  0  0  0  0  0  0
    0.1920    1.7270    0.1330 C   0  0  0  0  0  0  0  0  0  0  0  0
    0.6660    2.5610    0.6640 H   0  0  0  0  0  0  0  0  0  0  0  0
    0.1830    2.0100   -0.9240 H   0  0  0  0  0  0  0  0  0  0  0  0
    1.0120    0.4360    0.3370 C   0  0  1  0  0  0  0  0  0  0  0  0
    1.1090    0.3310    1.4320 H   0  0  0  0  0  0  0  0  0  0  0  0
    0.2530   -0.8290   -0.1390 C   0  0  2  0  0  0  0  0  0  0  0  0
    0.1680   -0.8140   -1.2310 H   0  0  0  0  0  0  0  0  0  0  0  0
   -1.1460   -0.8170    0.4770 C   0  0  2  0  0  0  0  0  0  0  0  0
   -1.0060   -0.7750    1.5720 H   0  0  0  0  0  0  0  0  0  0  0  0
   -2.0960   -1.9760    0.2440 C   0  0  0  0  0  0  0  0  0  0  0  0
   -2.1860   -2.2200   -0.8200 H   0  0  0  0  0  0  0  0  0  0  0  0
   -1.7880   -2.8870    0.7660 H   0  0  0  0  0  0  0  0  0  0  0  0
   -3.4220   -1.4440    0.8010 C   0  0  0  0  0  0  0  0  0  0  0  0
   -3.5230   -1.6700    1.8660 H   0  0  0  0  0  0  0  0  0  0  0  0
   -4.2760   -1.8310    0.2400 H   0  0  0  0  0  0  0  0  0  0  0  0
   -3.2970    0.0600    0.6310 C   0  0  0  0  0  0  0  0  0  0  0  0
   -4.1940    0.8650    0.8640 O   0  0  0  0  0  0  0  0  0  0  0  0
    1.0140   -2.0970    0.2340 C   0  0  0  0  0  0  0  0  0  0  0  0
    0.7010   -2.9130   -0.4280 H   0  0  0  0  0  0  0  0  0  0  0  0
    0.7540   -2.4100    1.2540 H   0  0  0  0  0  0  0  0  0  0  0  0
    2.4980   -1.9710    0.1800 C   0  0  0  0  0  0  0  0  0  0  0  0
    3.0450   -2.8970    0.3460 H   0  0  0  0  0  0  0  0  0  0  0  0
    3.1720   -0.8240    0.0080 C   0  0  0  0  0  0  0  0  0  0  0  0
    2.4720    0.5070   -0.2310 C   0  0  2  0  0  0  0  0  0  0  0  0
    3.2140    1.6680    0.4770 C   0  0  0  0  0  0  0  0  0  0  0  0
    2.8690    2.6350    0.0890 H   0  0  0  0  0  0  0  0  0  0  0  0
    2.9650    1.6660    1.5470 H   0  0  0  0  0  0  0  0  0  0  0  0
    4.7260    1.6250    0.3560 C   0  0  0  0  0  0  0  0  0  0  0  0
    5.1680    2.4540    0.9230 H   0  0  0  0  0  0  0  0  0  0  0  0
    5.0510    1.7750   -0.6800 H   0  0  0  0  0  0  0  0  0  0  0  0
    5.2430    0.3060    0.9010 C   0  0  1  0  0  0  0  0  0  0  0  0
    4.9650    0.1900    1.9560 H   0  0  0  0  0  0  0  0  0  0  0  0
    4.6730   -0.8330    0.0580 C   0  0  0  0  0  0  0  0  0  0  0  0
    5.0670   -0.7660   -0.9650 H   0  0  0  0  0  0  0  0  0  0  0  0
    5.0590   -1.7840    0.4480 H   0  0  0  0  0  0  0  0  0  0  0  0
    6.6590    0.2910    0.8150 O   0  0  0  0  0  0  0  0  0  0  0  0
    6.9710   -0.5420    1.2080 H   0  0  0  0  0  0  0  0  0  0  0  0
    2.4960    0.7670   -1.7450 C   0  0  0  0  0  0  0  0  0  0  0  0
    2.0740    1.7440   -2.0000 H   0  0  0  0  0  0  0  0  0  0  0  0
    1.9350    0.0110   -2.3040 H   0  0  0  0  0  0  0  0  0  0  0  0
    3.5160    0.7560   -2.1480 H   0  0  0  0  0  0  0  0  0  0  0  0
  1  2  1  0  0  0  0
  1  3  1  0  0  0  0
  1  4  1  0  0  0  0
  1  5  1  0  0  0  0
  5  6  1  0  0  0  0
  5 16  1  0  0  0  0
  5 24  1  0  0  0  0
  6  7  1  0  0  0  0
  6  8  1  0  0  0  0
  6  9  1  0  0  0  0
  9 10  1  0  0  0  0
  9 11  1  0  0  0  0
  9 12  1  0  0  0  0
 12 13  1  0  0  0  0
 12 14  1  0  0  0  0
 12 32  1  0  0  0  0
 14 15  1  0  0  0  0
 14 16  1  0  0  0  0
 14 26  1  0  0  0  0
 16 17  1  0  0  0  0
 16 18  1  0  0  0  0
 18 19  1  0  0  0  0
 18 20  1  0  0  0  0
 18 21  1  0  0  0  0
 21 22  1  0  0  0  0
 21 23  1  0  0  0  0
 21 24  1  0  0  0  0
 24 25  2  0  0  0  0
 26 27  1  0  0  0  0
 26 28  1  0  0  0  0
 26 29  1  0  0  0  0
 29 30  1  0  0  0  0
 29 31  2  0  0  0  0
 31 32  1  0  0  0  0
 31 41  1  0  0  0  0
 32 33  1  0  0  0  0
 32 46  1  0  0  0  0
 33 34  1  0  0  0  0
 33 35  1  0  0  0  0
 33 36  1  0  0  0  0
 36 37  1  0  0  0  0
 36 38  1  0  0  0  0
 36 39  1  0  0  0  0
 39 40  1  0  0  0  0
 39 41  1  0  0  0  0
 39 44  1  0  0  0  0
 41 42  1  0  0  0  0
 41 43  1  0  0  0  0
 44 45  1  0  0  0  0
 46 47  1  0  0  0  0
 46 48  1  0  0  0  0
 46 49  1  0  0  0  0
M  END
>  <index>
9

>  <name>
dehydroepiandrosterone

>  <systematicName>
(3_)-3-Hydroxyandrost-5-en-17-one

>  <ChemSpiderID>
5670

>  <isomericSMILES>
C[C@]12CC[C@H]3[C@H]([C@@H]1CCC2=O)CC=C4[C@@]3(CC[C@@H](C4)O)C

>  <Activity>
5

>  <pKi_TeBG>
-7.8189998

>  <bindingClass>
3

$$$$
11-deoxycorticosterone
  MOE2013           3D
11-deoxycorticosterone
 54 57  0  0  1  0  0  0  0  0999 V2000
   -2.0650    0.3450   -1.3940 C   0  0  0  0  0  0  0  0  0  0  0  0
   -1.1450    0.5110   -1.9600 H   0  0  0  0  0  0  0  0  0  0  0  0
   -2.7090    1.2090   -1.5910 H   0  0  0  0  0  0  0  0  0  0  0  0
   -2.5490   -0.5280   -1.8450 H   0  0  0  0  0  0  0  0  0  0  0  0
   -1.8240    0.1750    0.1160 C   0  0  2  0  0  0  0  0  0  0  0  0
   -1.1670    1.4340    0.6760 C   0  0  0  0  0  0  0  0  0  0  0  0
   -1.7630    2.3220    0.4340 H   0  0  0  0  0  0  0  0  0  0  0  0
   -1.1260    1.3850    1.7720 H   0  0  0  0  0  0  0  0  0  0  0  0
    0.2590    1.6170    0.1420 C   0  0  0  0  0  0  0  0  0  0  0  0
    0.6970    2.4750    0.6650 H   0  0  0  0  0  0  0  0  0  0  0  0
    0.2090    1.9010   -0.9130 H   0  0  0  0  0  0  0  0  0  0  0  0
    1.1580    0.3750    0.3260 C   0  0  1  0  0  0  0  0  0  0  0  0
    1.2770    0.2640    1.4170 H   0  0  0  0  0  0  0  0  0  0  0  0
    0.4590   -0.9210   -0.1560 C   0  0  2  0  0  0  0  0  0  0  0  0
    0.3500   -0.9040   -1.2460 H   0  0  0  0  0  0  0  0  0  0  0  0
   -0.9210   -1.0090    0.4800 C   0  0  2  0  0  0  0  0  0  0  0  0
   -0.7670   -1.0110    1.5720 H   0  0  0  0  0  0  0  0  0  0  0  0
   -1.7800   -2.2220    0.1790 C   0  0  0  0  0  0  0  0  0  0  0  0
   -1.7290   -2.5010   -0.8800 H   0  0  0  0  0  0  0  0  0  0  0  0
   -1.4760   -3.0970    0.7620 H   0  0  0  0  0  0  0  0  0  0  0  0
   -3.1970   -1.7780    0.5470 C   0  0  0  0  0  0  0  0  0  0  0  0
   -3.5490   -2.3070    1.4400 H   0  0  0  0  0  0  0  0  0  0  0  0
   -3.8810   -2.0420   -0.2630 H   0  0  0  0  0  0  0  0  0  0  0  0
   -3.1130   -0.2680    0.8310 C   0  0  2  0  0  0  0  0  0  0  0  0
   -2.9770   -0.1640    1.9180 H   0  0  0  0  0  0  0  0  0  0  0  0
   -4.3560    0.5570    0.5180 C   0  0  0  0  0  0  0  0  0  0  0  0
   -4.5460    1.6430    1.0750 O   0  0  0  0  0  0  0  0  0  0  0  0
   -5.3800    0.0400   -0.4740 C   0  0  0  0  0  0  0  0  0  0  0  0
   -5.8930   -0.8200   -0.0370 H   0  0  0  0  0  0  0  0  0  0  0  0
   -4.8900   -0.2520   -1.4050 H   0  0  0  0  0  0  0  0  0  0  0  0
   -6.3600    1.0150   -0.7950 O   0  0  0  0  0  0  0  0  0  0  0  0
   -6.3270    1.6760   -0.0740 H   0  0  0  0  0  0  0  0  0  0  0  0
    1.3110   -2.1350    0.2010 C   0  0  0  0  0  0  0  0  0  0  0  0
    1.3990   -2.2320    1.2910 H   0  0  0  0  0  0  0  0  0  0  0  0
    0.8330   -3.0540   -0.1580 H   0  0  0  0  0  0  0  0  0  0  0  0
    2.6890   -2.0350   -0.4180 C   0  0  0  0  0  0  0  0  0  0  0  0
    2.6070   -2.0930   -1.5110 H   0  0  0  0  0  0  0  0  0  0  0  0
    3.2750   -2.9110   -0.1120 H   0  0  0  0  0  0  0  0  0  0  0  0
    3.3810   -0.7560   -0.0480 C   0  0  0  0  0  0  0  0  0  0  0  0
    4.6350   -0.8040    0.4220 C   0  0  0  0  0  0  0  0  0  0  0  0
    5.1670   -1.7370    0.5800 H   0  0  0  0  0  0  0  0  0  0  0  0
    5.4190    0.4220    0.6650 C   0  0  0  0  0  0  0  0  0  0  0  0
    6.5530    0.3350    1.1280 O   0  0  0  0  0  0  0  0  0  0  0  0
    4.8080    1.7340    0.2690 C   0  0  0  0  0  0  0  0  0  0  0  0
    5.2390    2.5210    0.8990 H   0  0  0  0  0  0  0  0  0  0  0  0
    5.0770    1.9490   -0.7700 H   0  0  0  0  0  0  0  0  0  0  0  0
    3.3070    1.7010    0.4720 C   0  0  0  0  0  0  0  0  0  0  0  0
    2.8950    2.6660    0.1550 H   0  0  0  0  0  0  0  0  0  0  0  0
    3.1140    1.6260    1.5520 H   0  0  0  0  0  0  0  0  0  0  0  0
    2.6020    0.5360   -0.2620 C   0  0  2  0  0  0  0  0  0  0  0  0
    2.5830    0.8390   -1.7670 C   0  0  0  0  0  0  0  0  0  0  0  0
    2.1800    1.8360   -1.9760 H   0  0  0  0  0  0  0  0  0  0  0  0
    1.9820    0.1210   -2.3330 H   0  0  0  0  0  0  0  0  0  0  0  0
    3.5900    0.8110   -2.2000 H   0  0  0  0  0  0  0  0  0  0  0  0
  1  2  1  0  0  0  0
  1  3  1  0  0  0  0
  1  4  1  0  0  0  0
  1  5  1  0  0  0  0
  5  6  1  0  0  0  0
  5 16  1  0  0  0  0
  5 24  1  0  0  0  0
  6  7  1  0  0  0  0
  6  8  1  0  0  0  0
  6  9  1  0  0  0  0
  9 10  1  0  0  0  0
  9 11  1  0  0  0  0
  9 12  1  0  0  0  0
 12 13  1  0  0  0  0
 12 14  1  0  0  0  0
 12 50  1  0  0  0  0
 14 15  1  0  0  0  0
 14 16  1  0  0  0  0
 14 33  1  0  0  0  0
 16 17  1  0  0  0  0
 16 18  1  0  0  0  0
 18 19  1  0  0  0  0
 18 20  1  0  0  0  0
 18 21  1  0  0  0  0
 21 22  1  0  0  0  0
 21 23  1  0  0  0  0
 21 24  1  0  0  0  0
 24 25  1  0  0  0  0
 24 26  1  0  0  0  0
 26 27  2  0  0  0  0
 26 28  1  0  0  0  0
 28 29  1  0  0  0  0
 28 30  1  0  0  0  0
 28 31  1  0  0  0  0
 31 32  1  0  0  0  0
 33 34  1  0  0  0  0
 33 35  1  0  0  0  0
 33 36  1  0  0  0  0
 36 37  1  0  0  0  0
 36 38  1  0  0  0  0
 36 39  1  0  0  0  0
 39 40  2  0  0  0  0
 39 50  1  0  0  0  0
 40 41  1  0  0  0  0
 40 42  1  0  0  0  0
 42 43  2  0  0  0  0
 42 44  1  0  0  0  0
 44 45  1  0  0  0  0
 44 46  1  0  0  0  0
 44 47  1  0  0  0  0
 47 48  1  0  0  0  0
 47 49  1  0  0  0  0
 47 50  1  0  0  0  0
 50 51  1  0  0  0  0
 51 52  1  0  0  0  0
 51 53  1  0  0  0  0
 51 54  1  0  0  0  0
M  END
>  <index>
10

>  <name>
11-deoxycorticosterone

>  <systematicName>
21-Hydroxypregn-4-ene-3,20-dione

>  <ChemSpiderID>
5932

>  <isomericSMILES>
C[C@]12CC[C@H]3[C@H]([C@@H]1CC[C@@H]2C(=O)CO)CCC4=CC(=O)CC[C@]34C

>  <Activity>
7.6529999

>  <pKi_TeBG>
-7.3800001

>  <bindingClass>
1

$$$$
11-deoxycortisol
  MOE2013           3D
11-deoxycortisol
 55 58  0  0  1  0  0  0  0  0999 V2000
    2.5870    0.8460   -1.7850 C   0  0  0  0  0  0  0  0  0  0  0  0
    2.1780    1.8420   -1.9890 H   0  0  0  0  0  0  0  0  0  0  0  0
    1.9850    0.1240   -2.3440 H   0  0  0  0  0  0  0  0  0  0  0  0
    3.5940    0.8210   -2.2160 H   0  0  0  0  0  0  0  0  0  0  0  0
    2.6110    0.5420   -0.2700 C   0  0  2  0  0  0  0  0  0  0  0  0
    3.3220    1.7130    0.4690 C   0  0  0  0  0  0  0  0  0  0  0  0
    2.9160    2.6790    0.1460 H   0  0  0  0  0  0  0  0  0  0  0  0
    3.1230    1.6380    1.5480 H   0  0  0  0  0  0  0  0  0  0  0  0
    4.8310    1.7380    0.2730 C   0  0  0  0  0  0  0  0  0  0  0  0
    5.2610    2.5240    0.9050 H   0  0  0  0  0  0  0  0  0  0  0  0
    5.1030    1.9500   -0.7660 H   0  0  0  0  0  0  0  0  0  0  0  0
    5.4370    0.4170    0.6730 C   0  0  0  0  0  0  0  0  0  0  0  0
    6.5770    0.3250    1.1370 O   0  0  0  0  0  0  0  0  0  0  0  0
    4.6520   -0.8130    0.4110 C   0  0  0  0  0  0  0  0  0  0  0  0
    5.1780   -1.7500    0.5640 H   0  0  0  0  0  0  0  0  0  0  0  0
    3.3910   -0.7630   -0.0560 C   0  0  0  0  0  0  0  0  0  0  0  0
    2.6820   -2.0460   -0.4260 C   0  0  0  0  0  0  0  0  0  0  0  0
    2.5920   -2.0990   -1.5180 H   0  0  0  0  0  0  0  0  0  0  0  0
    3.2660   -2.9230   -0.1230 H   0  0  0  0  0  0  0  0  0  0  0  0
    1.2990   -2.1390    0.2040 C   0  0  0  0  0  0  0  0  0  0  0  0
    1.3960   -2.2330    1.2940 H   0  0  0  0  0  0  0  0  0  0  0  0
    0.8140   -3.0560   -0.1510 H   0  0  0  0  0  0  0  0  0  0  0  0
    0.4430   -0.9150   -0.1480 C   0  0  2  0  0  0  0  0  0  0  0  0
    0.3240   -0.8990   -1.2360 H   0  0  0  0  0  0  0  0  0  0  0  0
    1.1580    0.3890    0.3250 C   0  0  2  0  0  0  0  0  0  0  0  0
    1.2810    0.2830    1.4160 H   0  0  0  0  0  0  0  0  0  0  0  0
    0.2620    1.6420    0.1320 C   0  0  0  0  0  0  0  0  0  0  0  0
    0.7170    2.5050    0.6310 H   0  0  0  0  0  0  0  0  0  0  0  0
    0.1940    1.9050   -0.9280 H   0  0  0  0  0  0  0  0  0  0  0  0
   -1.1580    1.4730    0.7040 C   0  0  0  0  0  0  0  0  0  0  0  0
   -1.7510    2.3650    0.4720 H   0  0  0  0  0  0  0  0  0  0  0  0
   -1.0700    1.4340    1.7960 H   0  0  0  0  0  0  0  0  0  0  0  0
   -1.8520    0.2080    0.1640 C   0  0  1  0  0  0  0  0  0  0  0  0
   -0.9400   -0.9940    0.5110 C   0  0  1  0  0  0  0  0  0  0  0  0
   -0.7620   -1.0010    1.5990 H   0  0  0  0  0  0  0  0  0  0  0  0
   -1.8170   -2.2080    0.2170 C   0  0  0  0  0  0  0  0  0  0  0  0
   -1.7540   -2.5010   -0.8370 H   0  0  0  0  0  0  0  0  0  0  0  0
   -1.5240   -3.0750    0.8180 H   0  0  0  0  0  0  0  0  0  0  0  0
   -3.2510   -1.7520    0.5620 C   0  0  0  0  0  0  0  0  0  0  0  0
   -3.6280   -2.3230    1.4190 H   0  0  0  0  0  0  0  0  0  0  0  0
   -3.8960   -1.9850   -0.2900 H   0  0  0  0  0  0  0  0  0  0  0  0
   -3.1680   -0.2380    0.8830 C   0  0  2  0  0  0  0  0  0  0  0  0
   -4.4100    0.6190    0.5250 C   0  0  0  0  0  0  0  0  0  0  0  0
   -4.5820    1.7240    1.0690 O   0  0  0  0  0  0  0  0  0  0  0  0
   -5.4250    0.0770   -0.4880 C   0  0  0  0  0  0  0  0  0  0  0  0
   -5.9180   -0.8040   -0.0680 H   0  0  0  0  0  0  0  0  0  0  0  0
   -4.9140   -0.1920   -1.4150 H   0  0  0  0  0  0  0  0  0  0  0  0
   -6.4360    1.0300   -0.8280 O   0  0  0  0  0  0  0  0  0  0  0  0
   -6.8440    1.2970    0.0270 H   0  0  0  0  0  0  0  0  0  0  0  0
   -3.0080   -0.1410    2.3200 O   0  0  0  0  0  0  0  0  0  0  0  0
   -3.0480    0.8190    2.5370 H   0  0  0  0  0  0  0  0  0  0  0  0
   -2.0910    0.3680   -1.3620 C   0  0  0  0  0  0  0  0  0  0  0  0
   -1.1670    0.5180   -1.9260 H   0  0  0  0  0  0  0  0  0  0  0  0
   -2.7220    1.2410   -1.5660 H   0  0  0  0  0  0  0  0  0  0  0  0
   -2.5820   -0.5040   -1.8050 H   0  0  0  0  0  0  0  0  0  0  0  0
  1  2  1  0  0  0  0
  1  3  1  0  0  0  0
  1  4  1  0  0  0  0
  1  5  1  0  0  0  0
  5  6  1  0  0  0  0
  5 16  1  0  0  0  0
  5 25  1  0  0  0  0
  6  7  1  0  0  0  0
  6  8  1  0  0  0  0
  6  9  1  0  0  0  0
  9 10  1  0  0  0  0
  9 11  1  0  0  0  0
  9 12  1  0  0  0  0
 12 13  2  0  0  0  0
 12 14  1  0  0  0  0
 14 15  1  0  0  0  0
 14 16  2  0  0  0  0
 16 17  1  0  0  0  0
 17 18  1  0  0  0  0
 17 19  1  0  0  0  0
 17 20  1  0  0  0  0
 20 21  1  0  0  0  0
 20 22  1  0  0  0  0
 20 23  1  0  0  0  0
 23 24  1  0  0  0  0
 23 25  1  0  0  0  0
 23 34  1  0  0  0  0
 25 26  1  0  0  0  0
 25 27  1  0  0  0  0
 27 28  1  0  0  0  0
 27 29  1  0  0  0  0
 27 30  1  0  0  0  0
 30 31  1  0  0  0  0
 30 32  1  0  0  0  0
 30 33  1  0  0  0  0
 33 34  1  0  0  0  0
 33 42  1  0  0  0  0
 33 52  1  0  0  0  0
 34 35  1  0  0  0  0
 34 36  1  0  0  0  0
 36 37  1  0  0  0  0
 36 38  1  0  0  0  0
 36 39  1  0  0  0  0
 39 40  1  0  0  0  0
 39 41  1  0  0  0  0
 39 42  1  0  0  0  0
 42 43  1  0  0  0  0
 42 50  1  0  0  0  0
 43 44  2  0  0  0  0
 43 45  1  0  0  0  0
 45 46  1  0  0  0  0
 45 47  1  0  0  0  0
 45 48  1  0  0  0  0
 48 49  1  0  0  0  0
 50 51  1  0  0  0  0
 52 53  1  0  0  0  0
 52 54  1  0  0  0  0
 52 55  1  0  0  0  0
M  END
>  <index>
11

>  <name>
11-deoxycortisol

>  <systematicName>
17,21-Dihydroxypregn-4-ene-3,20-dione

>  <ChemSpiderID>
389582

>  <isomericSMILES>
C[C@]12CCC(=O)C=C1CC[C@@H]3[C@@H]2CC[C@]4([C@H]3CC[C@@]4(C(=O)CO)O)C

>  <Activity>
7.881

>  <pKi_TeBG>
-7.204

>  <bindingClass>
1

$$$$
dihydrotestosterone
  MOE2013           3D
dihydrotestosterone
 51 54  0  0  1  0  0  0  0  0999 V2000
    2.7230    0.7890   -1.7130 C   0  0  0  0  0  0  0  0  0  0  0  0
    3.7340    0.8120   -2.1300 H   0  0  0  0  0  0  0  0  0  0  0  0
    2.2730    1.7660   -1.9220 H   0  0  0  0  0  0  0  0  0  0  0  0
    2.1650    0.0520   -2.2970 H   0  0  0  0  0  0  0  0  0  0  0  0
    2.7240    0.4870   -0.2080 C   0  0  2  0  0  0  0  0  0  0  0  0
    3.4240    1.6550    0.5250 C   0  0  0  0  0  0  0  0  0  0  0  0
    2.9770    2.6160    0.2460 H   0  0  0  0  0  0  0  0  0  0  0  0
    3.2710    1.5460    1.6080 H   0  0  0  0  0  0  0  0  0  0  0  0
    4.9150    1.7470    0.2620 C   0  0  0  0  0  0  0  0  0  0  0  0
    5.3540    2.5060    0.9190 H   0  0  0  0  0  0  0  0  0  0  0  0
    5.1320    2.0360   -0.7710 H   0  0  0  0  0  0  0  0  0  0  0  0
    5.5750    0.4280    0.5410 C   0  0  0  0  0  0  0  0  0  0  0  0
    6.6670    0.3530    1.1000 O   0  0  0  0  0  0  0  0  0  0  0  0
    4.9590   -0.7780   -0.1080 C   0  0  0  0  0  0  0  0  0  0  0  0
    5.1900   -0.7470   -1.1780 H   0  0  0  0  0  0  0  0  0  0  0  0
    5.4390   -1.6730    0.3050 H   0  0  0  0  0  0  0  0  0  0  0  0
    3.4700   -0.8230    0.1520 C   0  0  2  0  0  0  0  0  0  0  0  0
    3.3660   -0.9740    1.2390 H   0  0  0  0  0  0  0  0  0  0  0  0
    2.8520   -2.0360   -0.5290 C   0  0  0  0  0  0  0  0  0  0  0  0
    2.9270   -1.9590   -1.6190 H   0  0  0  0  0  0  0  0  0  0  0  0
    3.4040   -2.9440   -0.2530 H   0  0  0  0  0  0  0  0  0  0  0  0
    1.4070   -2.2100   -0.1160 C   0  0  0  0  0  0  0  0  0  0  0  0
    1.3930   -2.5380    0.9320 H   0  0  0  0  0  0  0  0  0  0  0  0
    0.9640   -3.0280   -0.6960 H   0  0  0  0  0  0  0  0  0  0  0  0
    0.5660   -0.9430   -0.2800 C   0  0  2  0  0  0  0  0  0  0  0  0
    0.3640   -0.7840   -1.3450 H   0  0  0  0  0  0  0  0  0  0  0  0
    1.2770    0.3020    0.3230 C   0  0  2  0  0  0  0  0  0  0  0  0
    1.3840    0.1070    1.4030 H   0  0  0  0  0  0  0  0  0  0  0  0
    0.3860    1.5500    0.2350 C   0  0  0  0  0  0  0  0  0  0  0  0
    0.8780    2.4150    0.6900 H   0  0  0  0  0  0  0  0  0  0  0  0
    0.1930    1.8180   -0.8090 H   0  0  0  0  0  0  0  0  0  0  0  0
   -0.9210    1.3310    0.9900 C   0  0  0  0  0  0  0  0  0  0  0  0
   -1.5510    2.2260    0.9120 H   0  0  0  0  0  0  0  0  0  0  0  0
   -0.6930    1.2190    2.0590 H   0  0  0  0  0  0  0  0  0  0  0  0
   -1.6530    0.0980    0.4830 C   0  0  1  0  0  0  0  0  0  0  0  0
   -0.7420   -1.1270    0.4610 C   0  0  1  0  0  0  0  0  0  0  0  0
   -0.4170   -1.3220    1.5000 H   0  0  0  0  0  0  0  0  0  0  0  0
   -1.7040   -2.2710    0.1390 C   0  0  0  0  0  0  0  0  0  0  0  0
   -1.8550   -2.3920   -0.9380 H   0  0  0  0  0  0  0  0  0  0  0  0
   -1.3420   -3.2270    0.5330 H   0  0  0  0  0  0  0  0  0  0  0  0
   -3.0120   -1.8460    0.8380 C   0  0  0  0  0  0  0  0  0  0  0  0
   -3.3130   -2.5700    1.6040 H   0  0  0  0  0  0  0  0  0  0  0  0
   -3.8490   -1.7670    0.1360 H   0  0  0  0  0  0  0  0  0  0  0  0
   -2.6550   -0.5010    1.4730 C   0  0  2  0  0  0  0  0  0  0  0  0
   -2.1440   -0.7160    2.4240 H   0  0  0  0  0  0  0  0  0  0  0  0
   -3.6860    0.3470    1.8530 O   0  0  0  0  0  0  0  0  0  0  0  0
   -4.3250   -0.1710    2.3690 H   0  0  0  0  0  0  0  0  0  0  0  0
   -2.2850    0.4460   -0.8760 C   0  0  0  0  0  0  0  0  0  0  0  0
   -1.5310    0.7060   -1.6260 H   0  0  0  0  0  0  0  0  0  0  0  0
   -2.9590    1.3050   -0.7770 H   0  0  0  0  0  0  0  0  0  0  0  0
   -2.8790   -0.3610   -1.3120 H   0  0  0  0  0  0  0  0  0  0  0  0
  1  2  1  0  0  0  0
  1  3  1  0  0  0  0
  1  4  1  0  0  0  0
  1  5  1  0  0  0  0
  5  6  1  0  0  0  0
  5 17  1  0  0  0  0
  5 27  1  0  0  0  0
  6  7  1  0  0  0  0
  6  8  1  0  0  0  0
  6  9  1  0  0  0  0
  9 10  1  0  0  0  0
  9 11  1  0  0  0  0
  9 12  1  0  0  0  0
 12 13  2  0  0  0  0
 12 14  1  0  0  0  0
 14 15  1  0  0  0  0
 14 16  1  0  0  0  0
 14 17  1  0  0  0  0
 17 18  1  0  0  0  0
 17 19  1  0  0  0  0
 19 20  1  0  0  0  0
 19 21  1  0  0  0  0
 19 22  1  0  0  0  0
 22 23  1  0  0  0  0
 22 24  1  0  0  0  0
 22 25  1  0  0  0  0
 25 26  1  0  0  0  0
 25 27  1  0  0  0  0
 25 36  1  0  0  0  0
 27 28  1  0  0  0  0
 27 29  1  0  0  0  0
 29 30  1  0  0  0  0
 29 31  1  0  0  0  0
 29 32  1  0  0  0  0
 32 33  1  0  0  0  0
 32 34  1  0  0  0  0
 32 35  1  0  0  0  0
 35 36  1  0  0  0  0
 35 44  1  0  0  0  0
 35 48  1  0  0  0  0
 36 37  1  0  0  0  0
 36 38  1  0  0  0  0
 38 39  1  0  0  0  0
 38 40  1  0  0  0  0
 38 41  1  0  0  0  0
 41 42  1  0  0  0  0
 41 43  1  0  0  0  0
 41 44  1  0  0  0  0
 44 45  1  0  0  0  0
 44 46  1  0  0  0  0
 46 47  1  0  0  0  0
 48 49  1  0  0  0  0
 48 50  1  0  0  0  0
 48 51  1  0  0  0  0
M  END
>  <index>
12

>  <name>
dihydrotestosterone

>  <systematicName>
(5_,17_)-17-Hydroxyandrostan-3-one

>  <ChemSpiderID>
10189

>  <isomericSMILES>
C[C@]12CCC(=O)C[C@@H]1CC[C@@H]3[C@@H]2CC[C@]4([C@H]3CC[C@@H]4O)C

>  <Activity>
5.9190001

>  <pKi_TeBG>
-9.7399998

>  <bindingClass>
2

$$$$
estradiol
  MOE2013           3D
estradiol
 44 47  0  0  1  0  0  0  0  0999 V2000
   -2.2890    0.4400   -0.9510 C   0  0  0  0  0  0  0  0  0  0  0  0
   -1.5260    0.6930   -1.6940 H   0  0  0  0  0  0  0  0  0  0  0  0
   -2.9700    1.2960   -0.8730 H   0  0  0  0  0  0  0  0  0  0  0  0
   -2.8720   -0.3780   -1.3820 H   0  0  0  0  0  0  0  0  0  0  0  0
   -1.6700    0.1170    0.4200 C   0  0  2  0  0  0  0  0  0  0  0  0
   -0.9420    1.3630    0.9030 C   0  0  0  0  0  0  0  0  0  0  0  0
   -1.5640    2.2590    0.7790 H   0  0  0  0  0  0  0  0  0  0  0  0
   -0.7450    1.2870    1.9800 H   0  0  0  0  0  0  0  0  0  0  0  0
    0.3910    1.5530    0.1760 C   0  0  0  0  0  0  0  0  0  0  0  0
    0.8640    2.4320    0.6260 H   0  0  0  0  0  0  0  0  0  0  0  0
    0.2470    1.7900   -0.8830 H   0  0  0  0  0  0  0  0  0  0  0  0
    1.2580    0.2990    0.3340 C   0  0  1  0  0  0  0  0  0  0  0  0
    1.2780    0.1210    1.4240 H   0  0  0  0  0  0  0  0  0  0  0  0
    0.5680   -0.9450   -0.2820 C   0  0  2  0  0  0  0  0  0  0  0  0
    0.4300   -0.8070   -1.3620 H   0  0  0  0  0  0  0  0  0  0  0  0
   -0.7620   -1.1120    0.4250 C   0  0  2  0  0  0  0  0  0  0  0  0
   -0.4590   -1.2950    1.4730 H   0  0  0  0  0  0  0  0  0  0  0  0
   -1.7230   -2.2600    0.1140 C   0  0  0  0  0  0  0  0  0  0  0  0
   -1.8660   -2.3970   -0.9630 H   0  0  0  0  0  0  0  0  0  0  0  0
   -1.3650   -3.2090    0.5250 H   0  0  0  0  0  0  0  0  0  0  0  0
   -3.0360   -1.8210    0.7980 C   0  0  0  0  0  0  0  0  0  0  0  0
   -3.3430   -2.5330    1.5730 H   0  0  0  0  0  0  0  0  0  0  0  0
   -3.8670   -1.7520    0.0890 H   0  0  0  0  0  0  0  0  0  0  0  0
   -2.6800   -0.4670    1.4140 C   0  0  2  0  0  0  0  0  0  0  0  0
   -2.1690   -0.6730    2.3670 H   0  0  0  0  0  0  0  0  0  0  0  0
   -3.7110    0.3800    1.8020 O   0  0  0  0  0  0  0  0  0  0  0  0
   -4.3360   -0.1380    2.3370 H   0  0  0  0  0  0  0  0  0  0  0  0
    1.4100   -2.1940   -0.0300 C   0  0  0  0  0  0  0  0  0  0  0  0
    1.4560   -2.4110    1.0470 H   0  0  0  0  0  0  0  0  0  0  0  0
    0.9460   -3.0680   -0.5030 H   0  0  0  0  0  0  0  0  0  0  0  0
    2.8170   -2.0400   -0.5510 C   0  0  0  0  0  0  0  0  0  0  0  0
    2.8090   -2.0380   -1.6490 H   0  0  0  0  0  0  0  0  0  0  0  0
    3.4020   -2.9140   -0.2400 H   0  0  0  0  0  0  0  0  0  0  0  0
    3.4690   -0.7750   -0.0900 C   0  0  0  0  0  0  0  0  0  0  0  0
    2.7360    0.4120    0.0430 C   0  0  0  0  0  0  0  0  0  0  0  0
    3.4300    1.6080    0.2540 C   0  0  0  0  0  0  0  0  0  0  0  0
    2.9140    2.5590    0.3430 H   0  0  0  0  0  0  0  0  0  0  0  0
    4.7990    1.6010    0.4890 C   0  0  0  0  0  0  0  0  0  0  0  0
    5.3190    2.5260    0.7220 H   0  0  0  0  0  0  0  0  0  0  0  0
    5.4650    0.3930    0.5660 C   0  0  0  0  0  0  0  0  0  0  0  0
    4.8290   -0.7820    0.2020 C   0  0  0  0  0  0  0  0  0  0  0  0
    5.3820   -1.7170    0.1650 H   0  0  0  0  0  0  0  0  0  0  0  0
    6.7600    0.3840    0.9770 O   0  0  0  0  0  0  0  0  0  0  0  0
    7.0790   -0.5330    1.0010 H   0  0  0  0  0  0  0  0  0  0  0  0
  1  2  1  0  0  0  0
  1  3  1  0  0  0  0
  1  4  1  0  0  0  0
  1  5  1  0  0  0  0
  5  6  1  0  0  0  0
  5 16  1  0  0  0  0
  5 24  1  0  0  0  0
  6  7  1  0  0  0  0
  6  8  1  0  0  0  0
  6  9  1  0  0  0  0
  9 10  1  0  0  0  0
  9 11  1  0  0  0  0
  9 12  1  0  0  0  0
 12 13  1  0  0  0  0
 12 14  1  0  0  0  0
 12 35  1  0  0  0  0
 14 15  1  0  0  0  0
 14 16  1  0  0  0  0
 14 28  1  0  0  0  0
 16 17  1  0  0  0  0
 16 18  1  0  0  0  0
 18 19  1  0  0  0  0
 18 20  1  0  0  0  0
 18 21  1  0  0  0  0
 21 22  1  0  0  0  0
 21 23  1  0  0  0  0
 21 24  1  0  0  0  0
 24 25  1  0  0  0  0
 24 26  1  0  0  0  0
 26 27  1  0  0  0  0
 28 29  1  0  0  0  0
 28 30  1  0  0  0  0
 28 31  1  0  0  0  0
 31 32  1  0  0  0  0
 31 33  1  0  0  0  0
 31 34  1  0  0  0  0
 34 35  2  0  0  0  0
 34 41  1  0  0  0  0
 35 36  1  0  0  0  0
 36 37  1  0  0  0  0
 36 38  2  0  0  0  0
 38 39  1  0  0  0  0
 38 40  1  0  0  0  0
 40 41  2  0  0  0  0
 40 43  1  0  0  0  0
 41 42  1  0  0  0  0
 43 44  1  0  0  0  0
M  END
>  <index>
13

>  <name>
estradiol

>  <systematicName>
(17_)-Estra-1,3,5(10)-triene-3,17-diol

>  <ChemSpiderID>
5554

>  <isomericSMILES>
C[C@]12CC[C@H]3[C@H]([C@@H]1CC[C@@H]2O)CCC4=C3C=CC(=C4)O

>  <Activity>
5

>  <pKi_TeBG>
-8.8319998

>  <bindingClass>
3

$$$$
estriol
  MOE2013           3D
estriol
 45 48  0  0  1  0  0  0  0  0999 V2000
   -2.2820    0.6990   -1.3350 C   0  0  0  0  0  0  0  0  0  0  0  0
   -1.4200    0.6190   -2.0020 H   0  0  0  0  0  0  0  0  0  0  0  0
   -2.7660    1.6590   -1.5530 H   0  0  0  0  0  0  0  0  0  0  0  0
   -2.9950   -0.0770   -1.6320 H   0  0  0  0  0  0  0  0  0  0  0  0
   -1.8910    0.6170    0.1510 C   0  0  2  0  0  0  0  0  0  0  0  0
   -1.0750    1.8470    0.5270 C   0  0  0  0  0  0  0  0  0  0  0  0
   -1.5850    2.7640    0.2070 H   0  0  0  0  0  0  0  0  0  0  0  0
   -0.9830    1.9210    1.6190 H   0  0  0  0  0  0  0  0  0  0  0  0
    0.3320    1.8090   -0.0700 C   0  0  0  0  0  0  0  0  0  0  0  0
    0.8470    2.7010    0.3010 H   0  0  0  0  0  0  0  0  0  0  0  0
    0.3010    1.9080   -1.1610 H   0  0  0  0  0  0  0  0  0  0  0  0
    1.0700    0.5250    0.3260 C   0  0  1  0  0  0  0  0  0  0  0  0
    1.0380    0.5080    1.4300 H   0  0  0  0  0  0  0  0  0  0  0  0
    0.2810   -0.7250   -0.1440 C   0  0  2  0  0  0  0  0  0  0  0  0
    0.1940   -0.7200   -1.2380 H   0  0  0  0  0  0  0  0  0  0  0  0
   -1.0990   -0.6510    0.5110 C   0  0  2  0  0  0  0  0  0  0  0  0
   -0.8990   -0.6260    1.5970 H   0  0  0  0  0  0  0  0  0  0  0  0
   -2.1360   -1.7490    0.3210 C   0  0  0  0  0  0  0  0  0  0  0  0
   -1.8340   -2.6840    0.8050 H   0  0  0  0  0  0  0  0  0  0  0  0
   -2.3150   -1.9540   -0.7390 H   0  0  0  0  0  0  0  0  0  0  0  0
   -3.3660   -1.1010    0.9940 C   0  0  2  0  0  0  0  0  0  0  0  0
   -4.2970   -1.3980    0.5030 H   0  0  0  0  0  0  0  0  0  0  0  0
   -3.1360    0.4150    1.0400 C   0  0  2  0  0  0  0  0  0  0  0  0
   -2.9080    0.7250    2.0690 H   0  0  0  0  0  0  0  0  0  0  0  0
   -4.2740    1.1740    0.6490 O   0  0  0  0  0  0  0  0  0  0  0  0
   -4.9730    1.0210    1.3060 H   0  0  0  0  0  0  0  0  0  0  0  0
   -3.3740   -1.5970    2.3290 O   0  0  0  0  0  0  0  0  0  0  0  0
   -4.2040   -1.3130    2.7470 H   0  0  0  0  0  0  0  0  0  0  0  0
    1.0220   -1.9920    0.2680 C   0  0  0  0  0  0  0  0  0  0  0  0
    1.0650   -2.0620    1.3630 H   0  0  0  0  0  0  0  0  0  0  0  0
    0.4830   -2.8800   -0.0830 H   0  0  0  0  0  0  0  0  0  0  0  0
    2.4330   -2.0170   -0.2920 C   0  0  0  0  0  0  0  0  0  0  0  0
    2.3990   -2.1420   -1.3810 H   0  0  0  0  0  0  0  0  0  0  0  0
    2.9510   -2.8930    0.1150 H   0  0  0  0  0  0  0  0  0  0  0  0
    3.2040   -0.7650    0.0090 C   0  0  0  0  0  0  0  0  0  0  0  0
    2.5620    0.4800    0.0670 C   0  0  0  0  0  0  0  0  0  0  0  0
    3.3480    1.6320    0.2060 C   0  0  0  0  0  0  0  0  0  0  0  0
    2.9050    2.6210    0.2510 H   0  0  0  0  0  0  0  0  0  0  0  0
    4.7190    1.5460    0.4190 C   0  0  0  0  0  0  0  0  0  0  0  0
    5.3030    2.4440    0.5960 H   0  0  0  0  0  0  0  0  0  0  0  0
    5.3060    0.3020    0.5370 C   0  0  0  0  0  0  0  0  0  0  0  0
    4.5770   -0.8470    0.2580 C   0  0  0  0  0  0  0  0  0  0  0  0
    5.0610   -1.8190    0.2770 H   0  0  0  0  0  0  0  0  0  0  0  0
    6.6060    0.2480    0.9380 O   0  0  0  0  0  0  0  0  0  0  0  0
    6.8730   -0.6830    1.0020 H   0  0  0  0  0  0  0  0  0  0  0  0
  1  2  1  0  0  0  0
  1  3  1  0  0  0  0
  1  4  1  0  0  0  0
  1  5  1  0  0  0  0
  5  6  1  0  0  0  0
  5 16  1  0  0  0  0
  5 23  1  0  0  0  0
  6  7  1  0  0  0  0
  6  8  1  0  0  0  0
  6  9  1  0  0  0  0
  9 10  1  0  0  0  0
  9 11  1  0  0  0  0
  9 12  1  0  0  0  0
 12 13  1  0  0  0  0
 12 14  1  0  0  0  0
 12 36  1  0  0  0  0
 14 15  1  0  0  0  0
 14 16  1  0  0  0  0
 14 29  1  0  0  0  0
 16 17  1  0  0  0  0
 16 18  1  0  0  0  0
 18 19  1  0  0  0  0
 18 20  1  0  0  0  0
 18 21  1  0  0  0  0
 21 22  1  0  0  0  0
 21 23  1  0  0  0  0
 21 27  1  0  0  0  0
 23 24  1  0  0  0  0
 23 25  1  0  0  0  0
 25 26  1  0  0  0  0
 27 28  1  0  0  0  0
 29 30  1  0  0  0  0
 29 31  1  0  0  0  0
 29 32  1  0  0  0  0
 32 33  1  0  0  0  0
 32 34  1  0  0  0  0
 32 35  1  0  0  0  0
 35 36  2  0  0  0  0
 35 42  1  0  0  0  0
 36 37  1  0  0  0  0
 37 38  1  0  0  0  0
 37 39  2  0  0  0  0
 39 40  1  0  0  0  0
 39 41  1  0  0  0  0
 41 42  2  0  0  0  0
 41 44  1  0  0  0  0
 42 43  1  0  0  0  0
 44 45  1  0  0  0  0
M  END
>  <index>
14

>  <name>
estriol

>  <systematicName>
(16_,17_)-Estra-1(10),2,4-triene-3,16,17-triol

>  <ChemSpiderID>
5553

>  <isomericSMILES>
C[C@]12CC[C@H]3[C@H]([C@@H]1C[C@H]([C@@H]2O)O)CCC4=C3C=CC(=C4)O

>  <Activity>
5

>  <pKi_TeBG>
-6.6329999

>  <bindingClass>
3

$$$$
estrone
  MOE2013           3D
estrone
 42 45  0  0  1  0  0  0  0  0999 V2000
   -2.1500    0.4900   -1.5390 C   0  0  0  0  0  0  0  0  0  0  0  0
   -1.2140    0.5660   -2.0980 H   0  0  0  0  0  0  0  0  0  0  0  0
   -2.7510    1.3700   -1.8010 H   0  0  0  0  0  0  0  0  0  0  0  0
   -2.6940   -0.3750   -1.9310 H   0  0  0  0  0  0  0  0  0  0  0  0
   -1.9430    0.4220   -0.0230 C   0  0  2  0  0  0  0  0  0  0  0  0
   -1.2520    1.6690    0.4910 C   0  0  0  0  0  0  0  0  0  0  0  0
   -1.7730    2.5710    0.1450 H   0  0  0  0  0  0  0  0  0  0  0  0
   -1.2990    1.7040    1.5870 H   0  0  0  0  0  0  0  0  0  0  0  0
    0.2170    1.7250    0.0450 C   0  0  0  0  0  0  0  0  0  0  0  0
    0.6620    2.5980    0.5360 H   0  0  0  0  0  0  0  0  0  0  0  0
    0.2830    1.9160   -1.0320 H   0  0  0  0  0  0  0  0  0  0  0  0
    0.9950    0.4460    0.3970 C   0  0  1  0  0  0  0  0  0  0  0  0
    0.9630    0.3980    1.4990 H   0  0  0  0  0  0  0  0  0  0  0  0
    0.2620   -0.8250   -0.1050 C   0  0  2  0  0  0  0  0  0  0  0  0
    0.2260   -0.8200   -1.2010 H   0  0  0  0  0  0  0  0  0  0  0  0
   -1.1530   -0.7940    0.4760 C   0  0  2  0  0  0  0  0  0  0  0  0
   -1.0390   -0.7090    1.5720 H   0  0  0  0  0  0  0  0  0  0  0  0
   -2.1000   -1.9600    0.2750 C   0  0  0  0  0  0  0  0  0  0  0  0
   -2.1750   -2.2480   -0.7790 H   0  0  0  0  0  0  0  0  0  0  0  0
   -1.8020   -2.8490    0.8400 H   0  0  0  0  0  0  0  0  0  0  0  0
   -3.4330   -1.4050    0.7940 C   0  0  0  0  0  0  0  0  0  0  0  0
   -3.5500   -1.5950    1.8650 H   0  0  0  0  0  0  0  0  0  0  0  0
   -4.2790   -1.8090    0.2350 H   0  0  0  0  0  0  0  0  0  0  0  0
   -3.3030    0.0940    0.5750 C   0  0  0  0  0  0  0  0  0  0  0  0
   -4.2010    0.9050    0.7790 O   0  0  0  0  0  0  0  0  0  0  0  0
    1.0280   -2.0680    0.3230 C   0  0  0  0  0  0  0  0  0  0  0  0
    1.0690   -2.1260    1.4190 H   0  0  0  0  0  0  0  0  0  0  0  0
    0.5160   -2.9740   -0.0220 H   0  0  0  0  0  0  0  0  0  0  0  0
    2.4370   -2.0570   -0.2410 C   0  0  0  0  0  0  0  0  0  0  0  0
    2.4040   -2.1970   -1.3280 H   0  0  0  0  0  0  0  0  0  0  0  0
    2.9820   -2.9140    0.1760 H   0  0  0  0  0  0  0  0  0  0  0  0
    3.1700   -0.7800    0.0450 C   0  0  0  0  0  0  0  0  0  0  0  0
    2.4910    0.4460    0.1210 C   0  0  0  0  0  0  0  0  0  0  0  0
    3.2480    1.6180    0.2450 C   0  0  0  0  0  0  0  0  0  0  0  0
    2.7740    2.5930    0.2980 H   0  0  0  0  0  0  0  0  0  0  0  0
    4.6280    1.5680    0.4320 C   0  0  0  0  0  0  0  0  0  0  0  0
    5.1900    2.4820    0.6010 H   0  0  0  0  0  0  0  0  0  0  0  0
    5.2530    0.3410    0.5360 C   0  0  0  0  0  0  0  0  0  0  0  0
    4.5510   -0.8250    0.2630 C   0  0  0  0  0  0  0  0  0  0  0  0
    5.0620   -1.7840    0.2650 H   0  0  0  0  0  0  0  0  0  0  0  0
    6.5610    0.3080    0.9170 O   0  0  0  0  0  0  0  0  0  0  0  0
    6.8490   -0.6180    0.9700 H   0  0  0  0  0  0  0  0  0  0  0  0
  1  2  1  0  0  0  0
  1  3  1  0  0  0  0
  1  4  1  0  0  0  0
  1  5  1  0  0  0  0
  5  6  1  0  0  0  0
  5 16  1  0  0  0  0
  5 24  1  0  0  0  0
  6  7  1  0  0  0  0
  6  8  1  0  0  0  0
  6  9  1  0  0  0  0
  9 10  1  0  0  0  0
  9 11  1  0  0  0  0
  9 12  1  0  0  0  0
 12 13  1  0  0  0  0
 12 14  1  0  0  0  0
 12 33  1  0  0  0  0
 14 15  1  0  0  0  0
 14 16  1  0  0  0  0
 14 26  1  0  0  0  0
 16 17  1  0  0  0  0
 16 18  1  0  0  0  0
 18 19  1  0  0  0  0
 18 20  1  0  0  0  0
 18 21  1  0  0  0  0
 21 22  1  0  0  0  0
 21 23  1  0  0  0  0
 21 24  1  0  0  0  0
 24 25  2  0  0  0  0
 26 27  1  0  0  0  0
 26 28  1  0  0  0  0
 26 29  1  0  0  0  0
 29 30  1  0  0  0  0
 29 31  1  0  0  0  0
 29 32  1  0  0  0  0
 32 33  2  0  0  0  0
 32 39  1  0  0  0  0
 33 34  1  0  0  0  0
 34 35  1  0  0  0  0
 34 36  2  0  0  0  0
 36 37  1  0  0  0  0
 36 38  1  0  0  0  0
 38 39  2  0  0  0  0
 38 41  1  0  0  0  0
 39 40  1  0  0  0  0
 41 42  1  0  0  0  0
M  END
>  <index>
15

>  <name>
estrone

>  <systematicName>
3-Hydroxyestra-1,3,5(10)-trien-17-one

>  <ChemSpiderID>
5660

>  <isomericSMILES>
C[C@]12CC[C@H]3[C@H]([C@@H]1CCC2=O)CCC4=C3C=CC(=C4)O

>  <Activity>
5

>  <pKi_TeBG>
-8.1759996

>  <bindingClass>
3

$$$$
etiocholanolone
  MOE2013           3D
etiocholanolone
 51 54  0  0  1  0  0  0  0  0999 V2000
    2.5590    0.9040   -1.7970 C   0  0  0  0  0  0  0  0  0  0  0  0
    3.5580    0.9890   -2.2390 H   0  0  0  0  0  0  0  0  0  0  0  0
    2.0760    1.8780   -1.9230 H   0  0  0  0  0  0  0  0  0  0  0  0
    2.0110    0.1800   -2.4080 H   0  0  0  0  0  0  0  0  0  0  0  0
    2.6290    0.4790   -0.3190 C   0  0  2  0  0  0  0  0  0  0  0  0
    3.3580    1.5950    0.4680 C   0  0  0  0  0  0  0  0  0  0  0  0
    2.9190    2.5750    0.2460 H   0  0  0  0  0  0  0  0  0  0  0  0
    3.2160    1.4390    1.5460 H   0  0  0  0  0  0  0  0  0  0  0  0
    4.8480    1.6910    0.1950 C   0  0  0  0  0  0  0  0  0  0  0  0
    5.2870    2.4400    0.8670 H   0  0  0  0  0  0  0  0  0  0  0  0
    5.0000    2.0840   -0.8180 H   0  0  0  0  0  0  0  0  0  0  0  0
    5.5720    0.3590    0.3130 C   0  0  2  0  0  0  0  0  0  0  0  0
    6.1100    0.1410   -0.6160 H   0  0  0  0  0  0  0  0  0  0  0  0
    4.6450   -0.7910    0.6550 C   0  0  0  0  0  0  0  0  0  0  0  0
    5.2130   -1.7300    0.5980 H   0  0  0  0  0  0  0  0  0  0  0  0
    4.3420   -0.7160    1.7100 H   0  0  0  0  0  0  0  0  0  0  0  0
    3.4180   -0.8650   -0.2420 C   0  0  1  0  0  0  0  0  0  0  0  0
    3.7800   -1.1190   -1.2490 H   0  0  0  0  0  0  0  0  0  0  0  0
    2.5810   -2.0530    0.2310 C   0  0  0  0  0  0  0  0  0  0  0  0
    3.1410   -2.9820    0.0660 H   0  0  0  0  0  0  0  0  0  0  0  0
    2.4110   -1.9980    1.3150 H   0  0  0  0  0  0  0  0  0  0  0  0
    1.2520   -2.1510   -0.4700 C   0  0  0  0  0  0  0  0  0  0  0  0
    0.7150   -3.0220   -0.0820 H   0  0  0  0  0  0  0  0  0  0  0  0
    1.4360   -2.3730   -1.5300 H   0  0  0  0  0  0  0  0  0  0  0  0
    0.4220   -0.8750   -0.3810 C   0  0  2  0  0  0  0  0  0  0  0  0
    0.1610   -0.6060   -1.4110 H   0  0  0  0  0  0  0  0  0  0  0  0
    1.1960    0.3010    0.2690 C   0  0  2  0  0  0  0  0  0  0  0  0
    1.3350    0.0470    1.3330 H   0  0  0  0  0  0  0  0  0  0  0  0
    0.3320    1.5790    0.2760 C   0  0  0  0  0  0  0  0  0  0  0  0
    0.8380    2.3840    0.8180 H   0  0  0  0  0  0  0  0  0  0  0  0
    0.1740    1.9430   -0.7440 H   0  0  0  0  0  0  0  0  0  0  0  0
   -1.0180    1.3600    0.9540 C   0  0  0  0  0  0  0  0  0  0  0  0
   -1.6180    2.2770    0.8920 H   0  0  0  0  0  0  0  0  0  0  0  0
   -0.8550    1.1860    2.0260 H   0  0  0  0  0  0  0  0  0  0  0  0
   -1.7580    0.1890    0.3410 C   0  0  1  0  0  0  0  0  0  0  0  0
   -0.8760   -1.0660    0.3930 C   0  0  1  0  0  0  0  0  0  0  0  0
   -0.5850   -1.2560    1.4420 H   0  0  0  0  0  0  0  0  0  0  0  0
   -1.8370   -2.1910    0.0270 C   0  0  0  0  0  0  0  0  0  0  0  0
   -2.0190   -2.2380   -1.0520 H   0  0  0  0  0  0  0  0  0  0  0  0
   -1.4700   -3.1760    0.3340 H   0  0  0  0  0  0  0  0  0  0  0  0
   -3.1170   -1.8380    0.7900 C   0  0  0  0  0  0  0  0  0  0  0  0
   -3.2050   -2.4350    1.7030 H   0  0  0  0  0  0  0  0  0  0  0  0
   -4.0110   -1.9450    0.1720 H   0  0  0  0  0  0  0  0  0  0  0  0
   -2.8820   -0.3910    1.1620 C   0  0  0  0  0  0  0  0  0  0  0  0
   -3.4370    0.1750    2.0920 O   0  0  0  0  0  0  0  0  0  0  0  0
   -2.3060    0.5590   -1.0390 C   0  0  0  0  0  0  0  0  0  0  0  0
   -1.5180    0.7900   -1.7610 H   0  0  0  0  0  0  0  0  0  0  0  0
   -2.9470    1.4470   -0.9650 H   0  0  0  0  0  0  0  0  0  0  0  0
   -2.9330   -0.2220   -1.4810 H   0  0  0  0  0  0  0  0  0  0  0  0
    6.5290    0.4200    1.3610 O   0  0  0  0  0  0  0  0  0  0  0  0
    7.1710    1.1140    1.1320 H   0  0  0  0  0  0  0  0  0  0  0  0
  1  2  1  0  0  0  0
  1  3  1  0  0  0  0
  1  4  1  0  0  0  0
  1  5  1  0  0  0  0
  5  6  1  0  0  0  0
  5 17  1  0  0  0  0
  5 27  1  0  0  0  0
  6  7  1  0  0  0  0
  6  8  1  0  0  0  0
  6  9  1  0  0  0  0
  9 10  1  0  0  0  0
  9 11  1  0  0  0  0
  9 12  1  0  0  0  0
 12 13  1  0  0  0  0
 12 14  1  0  0  0  0
 12 50  1  0  0  0  0
 14 15  1  0  0  0  0
 14 16  1  0  0  0  0
 14 17  1  0  0  0  0
 17 18  1  0  0  0  0
 17 19  1  0  0  0  0
 19 20  1  0  0  0  0
 19 21  1  0  0  0  0
 19 22  1  0  0  0  0
 22 23  1  0  0  0  0
 22 24  1  0  0  0  0
 22 25  1  0  0  0  0
 25 26  1  0  0  0  0
 25 27  1  0  0  0  0
 25 36  1  0  0  0  0
 27 28  1  0  0  0  0
 27 29  1  0  0  0  0
 29 30  1  0  0  0  0
 29 31  1  0  0  0  0
 29 32  1  0  0  0  0
 32 33  1  0  0  0  0
 32 34  1  0  0  0  0
 32 35  1  0  0  0  0
 35 36  1  0  0  0  0
 35 44  1  0  0  0  0
 35 46  1  0  0  0  0
 36 37  1  0  0  0  0
 36 38  1  0  0  0  0
 38 39  1  0  0  0  0
 38 40  1  0  0  0  0
 38 41  1  0  0  0  0
 41 42  1  0  0  0  0
 41 43  1  0  0  0  0
 41 44  1  0  0  0  0
 44 45  2  0  0  0  0
 46 47  1  0  0  0  0
 46 48  1  0  0  0  0
 46 49  1  0  0  0  0
 50 51  1  0  0  0  0
M  END
>  <index>
16

>  <name>
etiocholanolone

>  <systematicName>
(3_,5_)-3-Hydroxyandrostan-17-one

>  <ChemSpiderID>
5669

>  <isomericSMILES>
C[C@]12CC[C@H](C[C@H]1CC[C@@H]3[C@@H]2CC[C@]4([C@H]3CCC4=O)C)O

>  <Activity>
5.2249999

>  <pKi_TeBG>
-6.1459999

>  <bindingClass>
3

$$$$
pregnenolone
  MOE2013           3D
pregnenolone
 55 58  0  0  1  0  0  0  0  0999 V2000
   -4.2590    2.1270    1.6960 C   0  0  0  0  0  0  0  0  0  0  0  0
   -3.8530    1.8910    2.6820 H   0  0  0  0  0  0  0  0  0  0  0  0
   -5.2880    2.4720    1.8310 H   0  0  0  0  0  0  0  0  0  0  0  0
   -3.6760    2.9230    1.2300 H   0  0  0  0  0  0  0  0  0  0  0  0
   -4.2540    0.9030    0.8140 C   0  0  0  0  0  0  0  0  0  0  0  0
   -5.1950    0.7260    0.0420 O   0  0  0  0  0  0  0  0  0  0  0  0
   -3.0490   -0.0280    0.9570 C   0  0  1  0  0  0  0  0  0  0  0  0
   -2.8240   -0.0400    2.0350 H   0  0  0  0  0  0  0  0  0  0  0  0
   -3.2800   -1.4940    0.5570 C   0  0  0  0  0  0  0  0  0  0  0  0
   -3.7000   -2.0590    1.3970 H   0  0  0  0  0  0  0  0  0  0  0  0
   -3.9830   -1.5970   -0.2770 H   0  0  0  0  0  0  0  0  0  0  0  0
   -1.8970   -2.0370    0.1660 C   0  0  0  0  0  0  0  0  0  0  0  0
   -1.8790   -2.3110   -0.8950 H   0  0  0  0  0  0  0  0  0  0  0  0
   -1.6470   -2.9360    0.7400 H   0  0  0  0  0  0  0  0  0  0  0  0
   -0.9430   -0.8900    0.4690 C   0  0  2  0  0  0  0  0  0  0  0  0
   -0.7500   -0.9330    1.5550 H   0  0  0  0  0  0  0  0  0  0  0  0
   -1.7810    0.3600    0.1790 C   0  0  2  0  0  0  0  0  0  0  0  0
   -1.0160    1.5610    0.7210 C   0  0  0  0  0  0  0  0  0  0  0  0
   -1.5590    2.4910    0.5200 H   0  0  0  0  0  0  0  0  0  0  0  0
   -0.9220    1.4900    1.8130 H   0  0  0  0  0  0  0  0  0  0  0  0
    0.3840    1.6760    0.1150 C   0  0  0  0  0  0  0  0  0  0  0  0
    0.8870    2.5050    0.6260 H   0  0  0  0  0  0  0  0  0  0  0  0
    0.2970    1.9780   -0.9330 H   0  0  0  0  0  0  0  0  0  0  0  0
    1.2260    0.3950    0.2450 C   0  0  1  0  0  0  0  0  0  0  0  0
    1.4230    0.2840    1.3230 H   0  0  0  0  0  0  0  0  0  0  0  0
    0.4250   -0.8650   -0.2020 C   0  0  1  0  0  0  0  0  0  0  0  0
    0.2640   -0.8270   -1.2840 H   0  0  0  0  0  0  0  0  0  0  0  0
    1.2020   -2.1490    0.0890 C   0  0  0  0  0  0  0  0  0  0  0  0
    0.8850   -2.9340   -0.6090 H   0  0  0  0  0  0  0  0  0  0  0  0
    0.9590   -2.5150    1.0950 H   0  0  0  0  0  0  0  0  0  0  0  0
    2.6840   -2.0120    0.0260 C   0  0  0  0  0  0  0  0  0  0  0  0
    3.2480   -2.9130    0.2540 H   0  0  0  0  0  0  0  0  0  0  0  0
    3.3320   -0.8570   -0.1830 C   0  0  0  0  0  0  0  0  0  0  0  0
    2.6150    0.4500   -0.4790 C   0  0  2  0  0  0  0  0  0  0  0  0
    3.5050    1.6450   -0.0500 C   0  0  0  0  0  0  0  0  0  0  0  0
    4.2240    1.8820   -0.8490 H   0  0  0  0  0  0  0  0  0  0  0  0
    2.9180    2.5620    0.0630 H   0  0  0  0  0  0  0  0  0  0  0  0
    4.3210    1.4090    1.2040 C   0  0  0  0  0  0  0  0  0  0  0  0
    3.6260    1.3420    2.0510 H   0  0  0  0  0  0  0  0  0  0  0  0
    4.9550    2.2820    1.3980 H   0  0  0  0  0  0  0  0  0  0  0  0
    5.1590    0.1260    1.1670 C   0  0  1  0  0  0  0  0  0  0  0  0
    5.0080   -0.4260    2.1040 H   0  0  0  0  0  0  0  0  0  0  0  0
    4.8140   -0.7740   -0.0170 C   0  0  0  0  0  0  0  0  0  0  0  0
    5.2730   -0.3960   -0.9400 H   0  0  0  0  0  0  0  0  0  0  0  0
    5.2720   -1.7600    0.1380 H   0  0  0  0  0  0  0  0  0  0  0  0
    6.5480    0.4230    1.0840 O   0  0  0  0  0  0  0  0  0  0  0  0
    6.7800    0.9570    1.8630 H   0  0  0  0  0  0  0  0  0  0  0  0
    2.4630    0.5780   -2.0060 C   0  0  0  0  0  0  0  0  0  0  0  0
    1.9670    1.5120   -2.2890 H   0  0  0  0  0  0  0  0  0  0  0  0
    1.9010   -0.2470   -2.4540 H   0  0  0  0  0  0  0  0  0  0  0  0
    3.4400    0.5750   -2.5070 H   0  0  0  0  0  0  0  0  0  0  0  0
   -2.1030    0.5720   -1.3120 C   0  0  0  0  0  0  0  0  0  0  0  0
   -1.2070    0.6790   -1.9290 H   0  0  0  0  0  0  0  0  0  0  0  0
   -2.6920    1.4860   -1.4520 H   0  0  0  0  0  0  0  0  0  0  0  0
   -2.6840   -0.2470   -1.7480 H   0  0  0  0  0  0  0  0  0  0  0  0
  1  2  1  0  0  0  0
  1  3  1  0  0  0  0
  1  4  1  0  0  0  0
  1  5  1  0  0  0  0
  5  6  2  0  0  0  0
  5  7  1  0  0  0  0
  7  8  1  0  0  0  0
  7  9  1  0  0  0  0
  7 17  1  0  0  0  0
  9 10  1  0  0  0  0
  9 11  1  0  0  0  0
  9 12  1  0  0  0  0
 12 13  1  0  0  0  0
 12 14  1  0  0  0  0
 12 15  1  0  0  0  0
 15 16  1  0  0  0  0
 15 17  1  0  0  0  0
 15 26  1  0  0  0  0
 17 18  1  0  0  0  0
 17 52  1  0  0  0  0
 18 19  1  0  0  0  0
 18 20  1  0  0  0  0
 18 21  1  0  0  0  0
 21 22  1  0  0  0  0
 21 23  1  0  0  0  0
 21 24  1  0  0  0  0
 24 25  1  0  0  0  0
 24 26  1  0  0  0  0
 24 34  1  0  0  0  0
 26 27  1  0  0  0  0
 26 28  1  0  0  0  0
 28 29  1  0  0  0  0
 28 30  1  0  0  0  0
 28 31  1  0  0  0  0
 31 32  1  0  0  0  0
 31 33  2  0  0  0  0
 33 34  1  0  0  0  0
 33 43  1  0  0  0  0
 34 35  1  0  0  0  0
 34 48  1  0  0  0  0
 35 36  1  0  0  0  0
 35 37  1  0  0  0  0
 35 38  1  0  0  0  0
 38 39  1  0  0  0  0
 38 40  1  0  0  0  0
 38 41  1  0  0  0  0
 41 42  1  0  0  0  0
 41 43  1  0  0  0  0
 41 46  1  0  0  0  0
 43 44  1  0  0  0  0
 43 45  1  0  0  0  0
 46 47  1  0  0  0  0
 48 49  1  0  0  0  0
 48 50  1  0  0  0  0
 48 51  1  0  0  0  0
 52 53  1  0  0  0  0
 52 54  1  0  0  0  0
 52 55  1  0  0  0  0
M  END
>  <index>
17

>  <name>
pregnenolone

>  <systematicName>
(3_)-3-Hydroxypregn-5-en-20-one

>  <ChemSpiderID>
8611

>  <isomericSMILES>
CC(=O)[C@H]1CC[C@@H]2[C@@]1(CC[C@H]3[C@H]2CC=C4[C@@]3(CC[C@@H](C4)O)C)C

>  <Activity>
5.2249999

>  <pKi_TeBG>
-7.1459999

>  <bindingClass>
3

$$$$
17-hydroxypregnenolone
  MOE2013           3D
17-hydroxypregnenolone
 56 59  0  0  1  0  0  0  0  0999 V2000
   -5.4120    0.1260   -0.5030 C   0  0  0  0  0  0  0  0  0  0  0  0
   -4.9240   -0.1460   -1.4400 H   0  0  0  0  0  0  0  0  0  0  0  0
   -6.1250    0.9280   -0.7160 H   0  0  0  0  0  0  0  0  0  0  0  0
   -5.9610   -0.7270   -0.0970 H   0  0  0  0  0  0  0  0  0  0  0  0
   -4.4090    0.6070    0.5050 C   0  0  0  0  0  0  0  0  0  0  0  0
   -4.5760    1.6810    1.0910 O   0  0  0  0  0  0  0  0  0  0  0  0
   -3.1950   -0.2560    0.8480 C   0  0  1  0  0  0  0  0  0  0  0  0
   -3.2820   -1.7610    0.5470 C   0  0  0  0  0  0  0  0  0  0  0  0
   -3.6330   -2.3220    1.4210 H   0  0  0  0  0  0  0  0  0  0  0  0
   -3.9530   -2.0020   -0.2830 H   0  0  0  0  0  0  0  0  0  0  0  0
   -1.8630   -2.2090    0.1720 C   0  0  0  0  0  0  0  0  0  0  0  0
   -1.8170   -2.4850   -0.8880 H   0  0  0  0  0  0  0  0  0  0  0  0
   -1.5620   -3.0890    0.7490 H   0  0  0  0  0  0  0  0  0  0  0  0
   -0.9910   -1.0050    0.4720 C   0  0  2  0  0  0  0  0  0  0  0  0
   -0.8240   -1.0200    1.5630 H   0  0  0  0  0  0  0  0  0  0  0  0
   -1.8890    0.1900    0.1340 C   0  0  2  0  0  0  0  0  0  0  0  0
   -1.2010    1.4420    0.6810 C   0  0  0  0  0  0  0  0  0  0  0  0
   -1.7910    2.3370    0.4470 H   0  0  0  0  0  0  0  0  0  0  0  0
   -1.1320    1.4030    1.7760 H   0  0  0  0  0  0  0  0  0  0  0  0
    0.2180    1.6090    0.1300 C   0  0  0  0  0  0  0  0  0  0  0  0
    0.6690    2.4690    0.6380 H   0  0  0  0  0  0  0  0  0  0  0  0
    0.1630    1.8800   -0.9290 H   0  0  0  0  0  0  0  0  0  0  0  0
    1.0980    0.3590    0.3280 C   0  0  1  0  0  0  0  0  0  0  0  0
    1.2000    0.2470    1.4210 H   0  0  0  0  0  0  0  0  0  0  0  0
    0.3940   -0.9270   -0.1650 C   0  0  1  0  0  0  0  0  0  0  0  0
    0.2930   -0.8920   -1.2550 H   0  0  0  0  0  0  0  0  0  0  0  0
    1.2040   -2.1740    0.1750 C   0  0  0  0  0  0  0  0  0  0  0  0
    0.9260   -2.9830   -0.5120 H   0  0  0  0  0  0  0  0  0  0  0  0
    0.9570   -2.5280    1.1840 H   0  0  0  0  0  0  0  0  0  0  0  0
    2.6770   -1.9890    0.1310 C   0  0  0  0  0  0  0  0  0  0  0  0
    3.2610   -2.8940    0.2830 H   0  0  0  0  0  0  0  0  0  0  0  0
    3.3020   -0.8130   -0.0200 C   0  0  0  0  0  0  0  0  0  0  0  0
    2.5520    0.4940   -0.2390 C   0  0  2  0  0  0  0  0  0  0  0  0
    3.2510    1.6710    0.4860 C   0  0  0  0  0  0  0  0  0  0  0  0
    2.8780    2.6310    0.1070 H   0  0  0  0  0  0  0  0  0  0  0  0
    2.9960    1.6490    1.5550 H   0  0  0  0  0  0  0  0  0  0  0  0
    4.7660    1.6760    0.3780 C   0  0  0  0  0  0  0  0  0  0  0  0
    5.1760    2.5100    0.9610 H   0  0  0  0  0  0  0  0  0  0  0  0
    5.0940    1.8520   -0.6540 H   0  0  0  0  0  0  0  0  0  0  0  0
    5.3190    0.3640    0.9070 C   0  0  1  0  0  0  0  0  0  0  0  0
    5.0320    0.2090    1.9540 H   0  0  0  0  0  0  0  0  0  0  0  0
    4.8000   -0.7720    0.0360 C   0  0  0  0  0  0  0  0  0  0  0  0
    5.1950   -0.6680   -0.9840 H   0  0  0  0  0  0  0  0  0  0  0  0
    5.2200   -1.7170    0.4060 H   0  0  0  0  0  0  0  0  0  0  0  0
    6.7340    0.3560    0.8340 O   0  0  0  0  0  0  0  0  0  0  0  0
    7.0600    1.0910    1.3800 H   0  0  0  0  0  0  0  0  0  0  0  0
    2.5600    0.7800   -1.7490 C   0  0  0  0  0  0  0  0  0  0  0  0
    2.0950    1.7420   -1.9860 H   0  0  0  0  0  0  0  0  0  0  0  0
    2.0320    0.0080   -2.3190 H   0  0  0  0  0  0  0  0  0  0  0  0
    3.5790    0.8210   -2.1520 H   0  0  0  0  0  0  0  0  0  0  0  0
   -2.1250    0.3600   -1.3800 C   0  0  0  0  0  0  0  0  0  0  0  0
   -1.2030    0.5100   -1.9480 H   0  0  0  0  0  0  0  0  0  0  0  0
   -2.7530    1.2370   -1.5790 H   0  0  0  0  0  0  0  0  0  0  0  0
   -2.6230   -0.5040   -1.8310 H   0  0  0  0  0  0  0  0  0  0  0  0
   -3.0400   -0.1170    2.2710 O   0  0  0  0  0  0  0  0  0  0  0  0
   -3.2780    0.8100    2.4820 H   0  0  0  0  0  0  0  0  0  0  0  0
  1  2  1  0  0  0  0
  1  3  1  0  0  0  0
  1  4  1  0  0  0  0
  1  5  1  0  0  0  0
  5  6  2  0  0  0  0
  5  7  1  0  0  0  0
  7  8  1  0  0  0  0
  7 16  1  0  0  0  0
  7 55  1  0  0  0  0
  8  9  1  0  0  0  0
  8 10  1  0  0  0  0
  8 11  1  0  0  0  0
 11 12  1  0  0  0  0
 11 13  1  0  0  0  0
 11 14  1  0  0  0  0
 14 15  1  0  0  0  0
 14 16  1  0  0  0  0
 14 25  1  0  0  0  0
 16 17  1  0  0  0  0
 16 51  1  0  0  0  0
 17 18  1  0  0  0  0
 17 19  1  0  0  0  0
 17 20  1  0  0  0  0
 20 21  1  0  0  0  0
 20 22  1  0  0  0  0
 20 23  1  0  0  0  0
 23 24  1  0  0  0  0
 23 25  1  0  0  0  0
 23 33  1  0  0  0  0
 25 26  1  0  0  0  0
 25 27  1  0  0  0  0
 27 28  1  0  0  0  0
 27 29  1  0  0  0  0
 27 30  1  0  0  0  0
 30 31  1  0  0  0  0
 30 32  2  0  0  0  0
 32 33  1  0  0  0  0
 32 42  1  0  0  0  0
 33 34  1  0  0  0  0
 33 47  1  0  0  0  0
 34 35  1  0  0  0  0
 34 36  1  0  0  0  0
 34 37  1  0  0  0  0
 37 38  1  0  0  0  0
 37 39  1  0  0  0  0
 37 40  1  0  0  0  0
 40 41  1  0  0  0  0
 40 42  1  0  0  0  0
 40 45  1  0  0  0  0
 42 43  1  0  0  0  0
 42 44  1  0  0  0  0
 45 46  1  0  0  0  0
 47 48  1  0  0  0  0
 47 49  1  0  0  0  0
 47 50  1  0  0  0  0
 51 52  1  0  0  0  0
 51 53  1  0  0  0  0
 51 54  1  0  0  0  0
 55 56  1  0  0  0  0
M  END
>  <index>
18

>  <name>
17-hydroxypregnenolone

>  <systematicName>
(3_)-3,17-Dihydroxypregn-5-en-20-one

>  <ChemSpiderID>
82579

>  <isomericSMILES>
CC(=O)[C@]1(CC[C@@H]2[C@@]1(CC[C@H]3[C@H]2CC=C4[C@@]3(CC[C@@H](C4)O)C)C)O

>  <Activity>
5

>  <pKi_TeBG>
-6.362

>  <bindingClass>
3

$$$$
progesterone
  MOE2013           3D
progesterone
 53 56  0  0  1  0  0  0  0  0999 V2000
   -5.3480    0.0250   -0.4500 C   0  0  0  0  0  0  0  0  0  0  0  0
   -4.8720   -0.2170   -1.4020 H   0  0  0  0  0  0  0  0  0  0  0  0
   -6.0960    0.8020   -0.6360 H   0  0  0  0  0  0  0  0  0  0  0  0
   -5.8580   -0.8510   -0.0430 H   0  0  0  0  0  0  0  0  0  0  0  0
   -4.3370    0.5320    0.5390 C   0  0  0  0  0  0  0  0  0  0  0  0
   -4.5180    1.6170    1.0950 O   0  0  0  0  0  0  0  0  0  0  0  0
   -3.0920   -0.2910    0.8410 C   0  0  1  0  0  0  0  0  0  0  0  0
   -2.9500   -0.1930    1.9290 H   0  0  0  0  0  0  0  0  0  0  0  0
   -3.1720   -1.7980    0.5470 C   0  0  0  0  0  0  0  0  0  0  0  0
   -3.5240   -2.3350    1.4360 H   0  0  0  0  0  0  0  0  0  0  0  0
   -3.8560   -2.0580   -0.2660 H   0  0  0  0  0  0  0  0  0  0  0  0
   -1.7560   -2.2360    0.1750 C   0  0  0  0  0  0  0  0  0  0  0  0
   -1.7040   -2.5110   -0.8840 H   0  0  0  0  0  0  0  0  0  0  0  0
   -1.4480   -3.1120    0.7550 H   0  0  0  0  0  0  0  0  0  0  0  0
   -0.9000   -1.0210    0.4790 C   0  0  2  0  0  0  0  0  0  0  0  0
   -0.7440   -1.0260    1.5720 H   0  0  0  0  0  0  0  0  0  0  0  0
   -1.8070    0.1620    0.1230 C   0  0  2  0  0  0  0  0  0  0  0  0
   -1.1530    1.4210    0.6830 C   0  0  0  0  0  0  0  0  0  0  0  0
   -1.7520    2.3080    0.4450 H   0  0  0  0  0  0  0  0  0  0  0  0
   -1.1100    1.3700    1.7790 H   0  0  0  0  0  0  0  0  0  0  0  0
    0.2700    1.6100    0.1470 C   0  0  0  0  0  0  0  0  0  0  0  0
    0.7080    2.4680    0.6700 H   0  0  0  0  0  0  0  0  0  0  0  0
    0.2180    1.8960   -0.9080 H   0  0  0  0  0  0  0  0  0  0  0  0
    1.1730    0.3700    0.3270 C   0  0  1  0  0  0  0  0  0  0  0  0
    1.2940    0.2560    1.4170 H   0  0  0  0  0  0  0  0  0  0  0  0
    0.4780   -0.9270   -0.1580 C   0  0  1  0  0  0  0  0  0  0  0  0
    0.3670   -0.9070   -1.2480 H   0  0  0  0  0  0  0  0  0  0  0  0
    1.3330   -2.1400    0.1940 C   0  0  0  0  0  0  0  0  0  0  0  0
    1.4220   -2.2400    1.2840 H   0  0  0  0  0  0  0  0  0  0  0  0
    0.8570   -3.0590   -0.1680 H   0  0  0  0  0  0  0  0  0  0  0  0
    2.7100   -2.0340   -0.4250 C   0  0  0  0  0  0  0  0  0  0  0  0
    2.6270   -2.0890   -1.5180 H   0  0  0  0  0  0  0  0  0  0  0  0
    3.2980   -2.9100   -0.1230 H   0  0  0  0  0  0  0  0  0  0  0  0
    3.3980   -0.7550   -0.0510 C   0  0  0  0  0  0  0  0  0  0  0  0
    4.6520   -0.8020    0.4210 C   0  0  0  0  0  0  0  0  0  0  0  0
    5.1850   -1.7330    0.5780 H   0  0  0  0  0  0  0  0  0  0  0  0
    5.4320    0.4250    0.6660 C   0  0  0  0  0  0  0  0  0  0  0  0
    6.5650    0.3390    1.1320 O   0  0  0  0  0  0  0  0  0  0  0  0
    4.8200    1.7370    0.2710 C   0  0  0  0  0  0  0  0  0  0  0  0
    5.2480    2.5240    0.9010 H   0  0  0  0  0  0  0  0  0  0  0  0
    5.0890    1.9530   -0.7680 H   0  0  0  0  0  0  0  0  0  0  0  0
    3.3180    1.7010    0.4730 C   0  0  0  0  0  0  0  0  0  0  0  0
    2.9040    2.6660    0.1570 H   0  0  0  0  0  0  0  0  0  0  0  0
    3.1250    1.6240    1.5530 H   0  0  0  0  0  0  0  0  0  0  0  0
    2.6160    0.5360   -0.2620 C   0  0  2  0  0  0  0  0  0  0  0  0
    2.5940    0.8420   -1.7670 C   0  0  0  0  0  0  0  0  0  0  0  0
    2.1880    1.8380   -1.9730 H   0  0  0  0  0  0  0  0  0  0  0  0
    1.9950    0.1230   -2.3340 H   0  0  0  0  0  0  0  0  0  0  0  0
    3.6010    0.8180   -2.2000 H   0  0  0  0  0  0  0  0  0  0  0  0
   -2.0540    0.3350   -1.3860 C   0  0  0  0  0  0  0  0  0  0  0  0
   -1.1350    0.5050   -1.9540 H   0  0  0  0  0  0  0  0  0  0  0  0
   -2.7000    1.1990   -1.5780 H   0  0  0  0  0  0  0  0  0  0  0  0
   -2.5370   -0.5370   -1.8380 H   0  0  0  0  0  0  0  0  0  0  0  0
  1  2  1  0  0  0  0
  1  3  1  0  0  0  0
  1  4  1  0  0  0  0
  1  5  1  0  0  0  0
  5  6  2  0  0  0  0
  5  7  1  0  0  0  0
  7  8  1  0  0  0  0
  7  9  1  0  0  0  0
  7 17  1  0  0  0  0
  9 10  1  0  0  0  0
  9 11  1  0  0  0  0
  9 12  1  0  0  0  0
 12 13  1  0  0  0  0
 12 14  1  0  0  0  0
 12 15  1  0  0  0  0
 15 16  1  0  0  0  0
 15 17  1  0  0  0  0
 15 26  1  0  0  0  0
 17 18  1  0  0  0  0
 17 50  1  0  0  0  0
 18 19  1  0  0  0  0
 18 20  1  0  0  0  0
 18 21  1  0  0  0  0
 21 22  1  0  0  0  0
 21 23  1  0  0  0  0
 21 24  1  0  0  0  0
 24 25  1  0  0  0  0
 24 26  1  0  0  0  0
 24 45  1  0  0  0  0
 26 27  1  0  0  0  0
 26 28  1  0  0  0  0
 28 29  1  0  0  0  0
 28 30  1  0  0  0  0
 28 31  1  0  0  0  0
 31 32  1  0  0  0  0
 31 33  1  0  0  0  0
 31 34  1  0  0  0  0
 34 35  2  0  0  0  0
 34 45  1  0  0  0  0
 35 36  1  0  0  0  0
 35 37  1  0  0  0  0
 37 38  2  0  0  0  0
 37 39  1  0  0  0  0
 39 40  1  0  0  0  0
 39 41  1  0  0  0  0
 39 42  1  0  0  0  0
 42 43  1  0  0  0  0
 42 44  1  0  0  0  0
 42 45  1  0  0  0  0
 45 46  1  0  0  0  0
 46 47  1  0  0  0  0
 46 48  1  0  0  0  0
 46 49  1  0  0  0  0
 50 51  1  0  0  0  0
 50 52  1  0  0  0  0
 50 53  1  0  0  0  0
M  END
>  <index>
19

>  <name>
progesterone

>  <systematicName>
Pregn-4-ene-3,20-dione

>  <ChemSpiderID>
5773

>  <isomericSMILES>
CC(=O)[C@H]1CC[C@@H]2[C@@]1(CC[C@H]3[C@H]2CCC4=CC(=O)CC[C@]34C)C

>  <Activity>
7.3800001

>  <pKi_TeBG>
-6.9439998

>  <bindingClass>
1

$$$$
17-hydroxyprogesterone
  MOE2013           3D
17-hydroxyprogesterone
 54 57  0  0  1  0  0  0  0  0999 V2000
    6.5470    0.3110    1.1240 O   0  0  0  0  0  0  0  0  0  0  0  0
    5.4110    0.3970    0.6680 C   0  0  0  0  0  0  0  0  0  0  0  0
    4.8030    1.7110    0.2740 C   0  0  0  0  0  0  0  0  0  0  0  0
    5.2320    2.4960    0.9070 H   0  0  0  0  0  0  0  0  0  0  0  0
    5.0740    1.9280   -0.7640 H   0  0  0  0  0  0  0  0  0  0  0  0
    3.3020    1.6790    0.4720 C   0  0  0  0  0  0  0  0  0  0  0  0
    2.8930    2.6460    0.1530 H   0  0  0  0  0  0  0  0  0  0  0  0
    3.1060    1.6050    1.5510 H   0  0  0  0  0  0  0  0  0  0  0  0
    2.5950    0.5150   -0.2630 C   0  0  2  0  0  0  0  0  0  0  0  0
    1.1510    0.3610    0.3250 C   0  0  2  0  0  0  0  0  0  0  0  0
    1.2700    0.2550    1.4160 H   0  0  0  0  0  0  0  0  0  0  0  0
    0.4370   -0.9340   -0.1460 C   0  0  2  0  0  0  0  0  0  0  0  0
    0.3220   -0.9230   -1.2350 H   0  0  0  0  0  0  0  0  0  0  0  0
   -0.9440   -1.0100    0.5020 C   0  0  2  0  0  0  0  0  0  0  0  0
   -0.7720   -1.0160    1.5910 H   0  0  0  0  0  0  0  0  0  0  0  0
   -1.8360   -2.2090    0.2150 C   0  0  0  0  0  0  0  0  0  0  0  0
   -1.7810   -2.5070   -0.8380 H   0  0  0  0  0  0  0  0  0  0  0  0
   -1.5510   -3.0810    0.8140 H   0  0  0  0  0  0  0  0  0  0  0  0
   -3.2650   -1.7440    0.5640 C   0  0  0  0  0  0  0  0  0  0  0  0
   -3.6380   -2.2950    1.4360 H   0  0  0  0  0  0  0  0  0  0  0  0
   -3.9190   -1.9830   -0.2790 H   0  0  0  0  0  0  0  0  0  0  0  0
   -3.1350   -0.2410    0.8550 C   0  0  2  0  0  0  0  0  0  0  0  0
   -3.0090   -0.1050    2.2810 O   0  0  0  0  0  0  0  0  0  0  0  0
   -3.2630    0.8180    2.4910 H   0  0  0  0  0  0  0  0  0  0  0  0
   -4.3690    0.6010    0.5180 C   0  0  0  0  0  0  0  0  0  0  0  0
   -4.5470    1.6760    1.0990 O   0  0  0  0  0  0  0  0  0  0  0  0
   -5.3700    0.1130   -0.4900 C   0  0  0  0  0  0  0  0  0  0  0  0
   -4.8810   -0.1490   -1.4290 H   0  0  0  0  0  0  0  0  0  0  0  0
   -6.0910    0.9100   -0.6990 H   0  0  0  0  0  0  0  0  0  0  0  0
   -5.9120   -0.7450   -0.0870 H   0  0  0  0  0  0  0  0  0  0  0  0
   -1.8340    0.1880    0.1470 C   0  0  1  0  0  0  0  0  0  0  0  0
   -1.1500    1.4430    0.6890 C   0  0  0  0  0  0  0  0  0  0  0  0
   -1.7420    2.3350    0.4530 H   0  0  0  0  0  0  0  0  0  0  0  0
   -1.0790    1.4060    1.7830 H   0  0  0  0  0  0  0  0  0  0  0  0
    0.2650    1.6090    0.1320 C   0  0  0  0  0  0  0  0  0  0  0  0
    0.7150    2.4700    0.6390 H   0  0  0  0  0  0  0  0  0  0  0  0
    0.2050    1.8810   -0.9260 H   0  0  0  0  0  0  0  0  0  0  0  0
   -2.0710    0.3480   -1.3680 C   0  0  0  0  0  0  0  0  0  0  0  0
   -1.1500    0.4980   -1.9360 H   0  0  0  0  0  0  0  0  0  0  0  0
   -2.7020    1.2220   -1.5710 H   0  0  0  0  0  0  0  0  0  0  0  0
   -2.5660   -0.5200   -1.8130 H   0  0  0  0  0  0  0  0  0  0  0  0
    1.2880   -2.1480    0.2110 C   0  0  0  0  0  0  0  0  0  0  0  0
    1.3810   -2.2420    1.3010 H   0  0  0  0  0  0  0  0  0  0  0  0
    0.8050   -3.0670   -0.1420 H   0  0  0  0  0  0  0  0  0  0  0  0
    2.6660   -2.0550   -0.4140 C   0  0  0  0  0  0  0  0  0  0  0  0
    2.5790   -2.1150   -1.5060 H   0  0  0  0  0  0  0  0  0  0  0  0
    3.2490   -2.9320   -0.1080 H   0  0  0  0  0  0  0  0  0  0  0  0
    3.3700   -0.7780   -0.0510 C   0  0  0  0  0  0  0  0  0  0  0  0
    4.6280   -0.8280    0.4100 C   0  0  0  0  0  0  0  0  0  0  0  0
    5.1590   -1.7620    0.5650 H   0  0  0  0  0  0  0  0  0  0  0  0
    2.5770    0.8190   -1.7680 C   0  0  0  0  0  0  0  0  0  0  0  0
    2.1810    1.8180   -1.9760 H   0  0  0  0  0  0  0  0  0  0  0  0
    1.9690    0.1050   -2.3320 H   0  0  0  0  0  0  0  0  0  0  0  0
    3.5840    0.7830   -2.2010 H   0  0  0  0  0  0  0  0  0  0  0  0
  1  2  2  0  0  0  0
  2  3  1  0  0  0  0
  2 49  1  0  0  0  0
  3  4  1  0  0  0  0
  3  5  1  0  0  0  0
  3  6  1  0  0  0  0
  6  7  1  0  0  0  0
  6  8  1  0  0  0  0
  6  9  1  0  0  0  0
  9 10  1  0  0  0  0
  9 48  1  0  0  0  0
  9 51  1  0  0  0  0
 10 11  1  0  0  0  0
 10 12  1  0  0  0  0
 10 35  1  0  0  0  0
 12 13  1  0  0  0  0
 12 14  1  0  0  0  0
 12 42  1  0  0  0  0
 14 15  1  0  0  0  0
 14 16  1  0  0  0  0
 14 31  1  0  0  0  0
 16 17  1  0  0  0  0
 16 18  1  0  0  0  0
 16 19  1  0  0  0  0
 19 20  1  0  0  0  0
 19 21  1  0  0  0  0
 19 22  1  0  0  0  0
 22 23  1  0  0  0  0
 22 25  1  0  0  0  0
 22 31  1  0  0  0  0
 23 24  1  0  0  0  0
 25 26  2  0  0  0  0
 25 27  1  0  0  0  0
 27 28  1  0  0  0  0
 27 29  1  0  0  0  0
 27 30  1  0  0  0  0
 31 32  1  0  0  0  0
 31 38  1  0  0  0  0
 32 33  1  0  0  0  0
 32 34  1  0  0  0  0
 32 35  1  0  0  0  0
 35 36  1  0  0  0  0
 35 37  1  0  0  0  0
 38 39  1  0  0  0  0
 38 40  1  0  0  0  0
 38 41  1  0  0  0  0
 42 43  1  0  0  0  0
 42 44  1  0  0  0  0
 42 45  1  0  0  0  0
 45 46  1  0  0  0  0
 45 47  1  0  0  0  0
 45 48  1  0  0  0  0
 48 49  2  0  0  0  0
 49 50  1  0  0  0  0
 51 52  1  0  0  0  0
 51 53  1  0  0  0  0
 51 54  1  0  0  0  0
M  END
>  <index>
20

>  <name>
17-hydroxyprogesterone

>  <systematicName>
17alpha-Hydroxy-4-pregnene-3,20-dione

>  <ChemSpiderID>
455281

>  <isomericSMILES>
O=C1CC[C@@]2([C@@H]3[C@H]([C@@H]4CC[C@](O)(C(=O)C)[C@]4(CC3)C)CCC2=C1)C

>  <Activity>
7.7399998

>  <pKi_TeBG>
-6.9959998

>  <bindingClass>
1

$$$$
testosterone
  MOE2013           3D
testosterone
 49 52  0  0  1  0  0  0  0  0999 V2000
   -2.1810    0.4450   -0.8070 C   0  0  0  0  0  0  0  0  0  0  0  0
   -1.4370    0.6870   -1.5720 H   0  0  0  0  0  0  0  0  0  0  0  0
   -2.8390    1.3150   -0.7010 H   0  0  0  0  0  0  0  0  0  0  0  0
   -2.7940   -0.3560   -1.2270 H   0  0  0  0  0  0  0  0  0  0  0  0
   -1.5320    0.0950    0.5440 C   0  0  2  0  0  0  0  0  0  0  0  0
   -0.7720    1.3160    1.0390 C   0  0  0  0  0  0  0  0  0  0  0  0
   -1.4050    2.2110    1.0120 H   0  0  0  0  0  0  0  0  0  0  0  0
   -0.4890    1.1800    2.0920 H   0  0  0  0  0  0  0  0  0  0  0  0
    0.4990    1.5560    0.2220 C   0  0  0  0  0  0  0  0  0  0  0  0
    1.0130    2.4060    0.6820 H   0  0  0  0  0  0  0  0  0  0  0  0
    0.2440    1.8640   -0.7960 H   0  0  0  0  0  0  0  0  0  0  0  0
    1.4190    0.3240    0.2060 C   0  0  1  0  0  0  0  0  0  0  0  0
    1.6940    0.1560    1.2610 H   0  0  0  0  0  0  0  0  0  0  0  0
    0.6520   -0.9550   -0.2730 C   0  0  2  0  0  0  0  0  0  0  0  0
    0.3790   -0.8600   -1.3290 H   0  0  0  0  0  0  0  0  0  0  0  0
   -0.6190   -1.1260    0.5230 C   0  0  2  0  0  0  0  0  0  0  0  0
   -0.2660   -1.3080    1.5540 H   0  0  0  0  0  0  0  0  0  0  0  0
   -1.5840   -2.2730    0.2120 C   0  0  0  0  0  0  0  0  0  0  0  0
   -1.7390   -2.4010   -0.8640 H   0  0  0  0  0  0  0  0  0  0  0  0
   -1.2180   -3.2260    0.6090 H   0  0  0  0  0  0  0  0  0  0  0  0
   -2.8900   -1.8510    0.9090 C   0  0  0  0  0  0  0  0  0  0  0  0
   -3.1860   -2.5720    1.6790 H   0  0  0  0  0  0  0  0  0  0  0  0
   -3.7290   -1.7800    0.2090 H   0  0  0  0  0  0  0  0  0  0  0  0
   -2.5350   -0.5020    1.5370 C   0  0  2  0  0  0  0  0  0  0  0  0
   -2.0270   -0.7050    2.4920 H   0  0  0  0  0  0  0  0  0  0  0  0
   -3.5850    0.3320    1.8950 O   0  0  0  0  0  0  0  0  0  0  0  0
   -4.2170   -0.1890    2.4190 H   0  0  0  0  0  0  0  0  0  0  0  0
    1.5260   -2.2010   -0.0970 C   0  0  0  0  0  0  0  0  0  0  0  0
    1.6640   -2.4150    0.9720 H   0  0  0  0  0  0  0  0  0  0  0  0
    1.0240   -3.0770   -0.5250 H   0  0  0  0  0  0  0  0  0  0  0  0
    2.8860   -2.0550   -0.7440 C   0  0  0  0  0  0  0  0  0  0  0  0
    2.7920   -2.0760   -1.8360 H   0  0  0  0  0  0  0  0  0  0  0  0
    3.4960   -2.9290   -0.4840 H   0  0  0  0  0  0  0  0  0  0  0  0
    3.5360   -0.7760   -0.3100 C   0  0  0  0  0  0  0  0  0  0  0  0
    4.7070   -0.8280    0.3370 C   0  0  0  0  0  0  0  0  0  0  0  0
    5.2430   -1.7520    0.5150 H   0  0  0  0  0  0  0  0  0  0  0  0
    5.3440    0.3990    0.8360 C   0  0  0  0  0  0  0  0  0  0  0  0
    6.5010    0.3480    1.2420 O   0  0  0  0  0  0  0  0  0  0  0  0
    4.4610    1.6010    1.0060 C   0  0  0  0  0  0  0  0  0  0  0  0
    3.8760    1.4830    1.9240 H   0  0  0  0  0  0  0  0  0  0  0  0
    5.0940    2.4880    1.1160 H   0  0  0  0  0  0  0  0  0  0  0  0
    3.5740    1.7570   -0.2000 C   0  0  0  0  0  0  0  0  0  0  0  0
    4.2430    2.0150   -1.0350 H   0  0  0  0  0  0  0  0  0  0  0  0
    2.9390    2.6400   -0.0800 H   0  0  0  0  0  0  0  0  0  0  0  0
    2.7510    0.5030   -0.5840 C   0  0  2  0  0  0  0  0  0  0  0  0
    2.4920    0.6710   -2.0960 C   0  0  0  0  0  0  0  0  0  0  0  0
    1.9790    1.6150   -2.3100 H   0  0  0  0  0  0  0  0  0  0  0  0
    1.8920   -0.1260   -2.5400 H   0  0  0  0  0  0  0  0  0  0  0  0
    3.4350    0.6810   -2.6580 H   0  0  0  0  0  0  0  0  0  0  0  0
  1  2  1  0  0  0  0
  1  3  1  0  0  0  0
  1  4  1  0  0  0  0
  1  5  1  0  0  0  0
  5  6  1  0  0  0  0
  5 16  1  0  0  0  0
  5 24  1  0  0  0  0
  6  7  1  0  0  0  0
  6  8  1  0  0  0  0
  6  9  1  0  0  0  0
  9 10  1  0  0  0  0
  9 11  1  0  0  0  0
  9 12  1  0  0  0  0
 12 13  1  0  0  0  0
 12 14  1  0  0  0  0
 12 45  1  0  0  0  0
 14 15  1  0  0  0  0
 14 16  1  0  0  0  0
 14 28  1  0  0  0  0
 16 17  1  0  0  0  0
 16 18  1  0  0  0  0
 18 19  1  0  0  0  0
 18 20  1  0  0  0  0
 18 21  1  0  0  0  0
 21 22  1  0  0  0  0
 21 23  1  0  0  0  0
 21 24  1  0  0  0  0
 24 25  1  0  0  0  0
 24 26  1  0  0  0  0
 26 27  1  0  0  0  0
 28 29  1  0  0  0  0
 28 30  1  0  0  0  0
 28 31  1  0  0  0  0
 31 32  1  0  0  0  0
 31 33  1  0  0  0  0
 31 34  1  0  0  0  0
 34 35  2  0  0  0  0
 34 45  1  0  0  0  0
 35 36  1  0  0  0  0
 35 37  1  0  0  0  0
 37 38  2  0  0  0  0
 37 39  1  0  0  0  0
 39 40  1  0  0  0  0
 39 41  1  0  0  0  0
 39 42  1  0  0  0  0
 42 43  1  0  0  0  0
 42 44  1  0  0  0  0
 42 45  1  0  0  0  0
 45 46  1  0  0  0  0
 46 47  1  0  0  0  0
 46 48  1  0  0  0  0
 46 49  1  0  0  0  0
M  END
>  <index>
21

>  <name>
testosterone

>  <systematicName>
(17_)-17-Hydroxyandrost-4-en-3-one

>  <ChemSpiderID>
5791

>  <isomericSMILES>
C[C@]12CC[C@H]3[C@H]([C@@H]1CC[C@@H]2O)CCC4=CC(=O)CC[C@]34C

>  <Activity>
6.724

>  <pKi_TeBG>
-9.2040005

>  <bindingClass>
2

$$$$

